version 2
run General-0-20200708-19:30:02-3885
attr configname General
attr datetime 20200708-19:30:02
attr experiment General
attr inifile asha_cbs.ini
attr iterationvars ""
attr iterationvarsf ""
attr measurement ""
attr network TestScenario
attr processid 3885
attr repetition 0
attr replication #0
attr resultdir results_strict_priority
attr runnumber 0
attr seedset 0
param **.displayAddresses true
param **.verbose true
param **.robotController.eth.address "\"00-00-00-00-00-01\""
param **.workstation1.eth.address "\"00-00-00-00-00-02\""
param **.workstation2.eth.address "\"00-00-00-00-00-03\""
param **.roboticArm.eth.address "\"00-00-00-00-00-04\""
param **.backupServer.eth.address "\"00-00-00-00-00-05\""
param **.switch*.processingDelay.delay 5us
param **.filteringDatabase.database "xmldoc(\"xml/TestScenarioRouting.xml\", \"/filteringDatabases/\")"
param **.switchA.eth[3].queue.gateController.initialSchedule "xmldoc(\"asha_xml/asha_cbs.xml\", \"/schedules/switch[@name='switchA']/port[@id='4']/schedule\")"
param **.switchB.eth[0].queue.gateController.initialSchedule "xmldoc(\"asha_xml/asha_cbs.xml\", \"/schedules/switch[@name='switchB']/port[@id='0']/schedule\")"
param **.switch*.eth[*].queue.gateController.enableHoldAndRelease false
param **.switch*.eth[*].queue.numberOfQueues 8
param **.switch*.eth[*].queue.tsAlgorithms[0].typename "\"StrictPriority\""
param **.switch*.eth[*].queue.tsAlgorithms[1].typename "\"StrictPriority\""
param **.switch*.eth[*].queue.tsAlgorithms[2].typename "\"StrictPriority\""
param **.switch*.eth[*].queue.tsAlgorithms[3].typename "\"StrictPriority\""
param **.switch*.eth[*].queue.tsAlgorithms[4].typename "\"CreditBasedShaper\""
param **.switch*.eth[*].queue.tsAlgorithms[5].typename "\"CreditBasedShaper\""
param **.switch*.eth[*].queue.tsAlgorithms[6].typename "\"CreditBasedShaper\""
param **.switch*.eth[*].queue.tsAlgorithms[7].typename "\"StrictPriority\""
param **.switch*.eth[*].queue.queues[0].expressQueue true
param **.switch*.eth[*].queue.queues[1].expressQueue true
param **.switch*.eth[*].queue.queues[2].expressQueue true
param **.switch*.eth[*].queue.queues[3].expressQueue true
param **.switch*.eth[*].queue.queues[4].expressQueue true
param **.switch*.eth[*].queue.queues[5].expressQueue true
param **.switch*.eth[*].queue.queues[6].expressQueue true
param **.queues[*].bufferCapacity 363360b
param **.switchA.eth[3].mac.enablePreemptingFrames false
param **.robotController.trafGenSchedApp.initialSchedule "xmldoc(\"xml/TestScenarioSchedule_AllOpen.xml\")"
param **.workstation*.trafGenApp.destAddress "\"00-00-00-00-00-05\""
param **.workstation*.trafGenApp.packetLength 1500Byte-4Byte
param **.workstation*.trafGenApp.sendInterval 12us
param **.workstation*.trafGenApp.vlanTagEnabled true
param **.workstation1.trafGenApp.pcp 6
param **.workstation2.trafGenApp.pcp 5
param **.roboticArm.trafGenApp.numPacketsPerBurst 0
param **.roboticArm.trafGenApp.sendInterval 1ms
param **.roboticArm.trafGenApp.packetLength 100B
param **.backupServer.trafGenApp.numPacketsPerBurst 0
param **.backupServer.trafGenApp.sendInterval 1ms
param **.backupServer.trafGenApp.packetLength 100B

scalar TestScenario.switchA.eth[0].queue.queues[0] dropPk:count 0
attr interpolationmode none
attr source dropPkByQueue
attr title "dropped packets, count"
scalar TestScenario.switchA.eth[0].queue.queues[0] rcvdPk:count 0
attr interpolationmode none
attr title "received packets, count"
statistic TestScenario.switchA.eth[0].queue.queues[0] queueingTime:histogram
field count 0
field mean -nan
field stddev -nan
field min -nan
field max -nan
field sum 0
field sqrsum 0
attr interpolationmode none
attr title "queueing time, histogram"
bin	-inf	0
bin	0	0
bin	1	0
scalar TestScenario.switchA.eth[0].queue.queues[0] queueLength:max 0
attr interpolationmode sample-hold
attr title "queue length, max"
scalar TestScenario.switchA.eth[0].queue.queues[0] queueLength:timeavg 0
attr interpolationmode sample-hold
attr title "queue length, timeavg"
scalar TestScenario.switchA.eth[0].queue.queues[1] dropPk:count 0
attr interpolationmode none
attr source dropPkByQueue
attr title "dropped packets, count"
scalar TestScenario.switchA.eth[0].queue.queues[1] rcvdPk:count 0
attr interpolationmode none
attr title "received packets, count"
statistic TestScenario.switchA.eth[0].queue.queues[1] queueingTime:histogram
field count 0
field mean -nan
field stddev -nan
field min -nan
field max -nan
field sum 0
field sqrsum 0
attr interpolationmode none
attr title "queueing time, histogram"
bin	-inf	0
bin	0	0
bin	1	0
scalar TestScenario.switchA.eth[0].queue.queues[1] queueLength:max 0
attr interpolationmode sample-hold
attr title "queue length, max"
scalar TestScenario.switchA.eth[0].queue.queues[1] queueLength:timeavg 0
attr interpolationmode sample-hold
attr title "queue length, timeavg"
scalar TestScenario.switchA.eth[0].queue.queues[2] dropPk:count 0
attr interpolationmode none
attr source dropPkByQueue
attr title "dropped packets, count"
scalar TestScenario.switchA.eth[0].queue.queues[2] rcvdPk:count 0
attr interpolationmode none
attr title "received packets, count"
statistic TestScenario.switchA.eth[0].queue.queues[2] queueingTime:histogram
field count 0
field mean -nan
field stddev -nan
field min -nan
field max -nan
field sum 0
field sqrsum 0
attr interpolationmode none
attr title "queueing time, histogram"
bin	-inf	0
bin	0	0
bin	1	0
scalar TestScenario.switchA.eth[0].queue.queues[2] queueLength:max 0
attr interpolationmode sample-hold
attr title "queue length, max"
scalar TestScenario.switchA.eth[0].queue.queues[2] queueLength:timeavg 0
attr interpolationmode sample-hold
attr title "queue length, timeavg"
scalar TestScenario.switchA.eth[0].queue.queues[3] dropPk:count 0
attr interpolationmode none
attr source dropPkByQueue
attr title "dropped packets, count"
scalar TestScenario.switchA.eth[0].queue.queues[3] rcvdPk:count 0
attr interpolationmode none
attr title "received packets, count"
statistic TestScenario.switchA.eth[0].queue.queues[3] queueingTime:histogram
field count 0
field mean -nan
field stddev -nan
field min -nan
field max -nan
field sum 0
field sqrsum 0
attr interpolationmode none
attr title "queueing time, histogram"
bin	-inf	0
bin	0	0
bin	1	0
scalar TestScenario.switchA.eth[0].queue.queues[3] queueLength:max 0
attr interpolationmode sample-hold
attr title "queue length, max"
scalar TestScenario.switchA.eth[0].queue.queues[3] queueLength:timeavg 0
attr interpolationmode sample-hold
attr title "queue length, timeavg"
scalar TestScenario.switchA.eth[0].queue.queues[4] dropPk:count 0
attr interpolationmode none
attr source dropPkByQueue
attr title "dropped packets, count"
scalar TestScenario.switchA.eth[0].queue.queues[4] rcvdPk:count 0
attr interpolationmode none
attr title "received packets, count"
statistic TestScenario.switchA.eth[0].queue.queues[4] queueingTime:histogram
field count 0
field mean -nan
field stddev -nan
field min -nan
field max -nan
field sum 0
field sqrsum 0
attr interpolationmode none
attr title "queueing time, histogram"
bin	-inf	0
bin	0	0
bin	1	0
scalar TestScenario.switchA.eth[0].queue.queues[4] queueLength:max 0
attr interpolationmode sample-hold
attr title "queue length, max"
scalar TestScenario.switchA.eth[0].queue.queues[4] queueLength:timeavg 0
attr interpolationmode sample-hold
attr title "queue length, timeavg"
scalar TestScenario.switchA.eth[0].queue.queues[5] dropPk:count 0
attr interpolationmode none
attr source dropPkByQueue
attr title "dropped packets, count"
scalar TestScenario.switchA.eth[0].queue.queues[5] rcvdPk:count 0
attr interpolationmode none
attr title "received packets, count"
statistic TestScenario.switchA.eth[0].queue.queues[5] queueingTime:histogram
field count 0
field mean -nan
field stddev -nan
field min -nan
field max -nan
field sum 0
field sqrsum 0
attr interpolationmode none
attr title "queueing time, histogram"
bin	-inf	0
bin	0	0
bin	1	0
scalar TestScenario.switchA.eth[0].queue.queues[5] queueLength:max 0
attr interpolationmode sample-hold
attr title "queue length, max"
scalar TestScenario.switchA.eth[0].queue.queues[5] queueLength:timeavg 0
attr interpolationmode sample-hold
attr title "queue length, timeavg"
scalar TestScenario.switchA.eth[0].queue.queues[6] dropPk:count 0
attr interpolationmode none
attr source dropPkByQueue
attr title "dropped packets, count"
scalar TestScenario.switchA.eth[0].queue.queues[6] rcvdPk:count 0
attr interpolationmode none
attr title "received packets, count"
statistic TestScenario.switchA.eth[0].queue.queues[6] queueingTime:histogram
field count 0
field mean -nan
field stddev -nan
field min -nan
field max -nan
field sum 0
field sqrsum 0
attr interpolationmode none
attr title "queueing time, histogram"
bin	-inf	0
bin	0	0
bin	1	0
scalar TestScenario.switchA.eth[0].queue.queues[6] queueLength:max 0
attr interpolationmode sample-hold
attr title "queue length, max"
scalar TestScenario.switchA.eth[0].queue.queues[6] queueLength:timeavg 0
attr interpolationmode sample-hold
attr title "queue length, timeavg"
scalar TestScenario.switchA.eth[0].queue.queues[7] dropPk:count 0
attr interpolationmode none
attr source dropPkByQueue
attr title "dropped packets, count"
scalar TestScenario.switchA.eth[0].queue.queues[7] rcvdPk:count 0
attr interpolationmode none
attr title "received packets, count"
statistic TestScenario.switchA.eth[0].queue.queues[7] queueingTime:histogram
field count 0
field mean -nan
field stddev -nan
field min -nan
field max -nan
field sum 0
field sqrsum 0
attr interpolationmode none
attr title "queueing time, histogram"
bin	-inf	0
bin	0	0
bin	1	0
scalar TestScenario.switchA.eth[0].queue.queues[7] queueLength:max 0
attr interpolationmode sample-hold
attr title "queue length, max"
scalar TestScenario.switchA.eth[0].queue.queues[7] queueLength:timeavg 0
attr interpolationmode sample-hold
attr title "queue length, timeavg"
scalar TestScenario.switchA.eth[0].mac "simulated time" 0.000331971314
scalar TestScenario.switchA.eth[0].mac full-duplex 1
scalar TestScenario.switchA.eth[0].mac "frames/sec sent" 0
scalar TestScenario.switchA.eth[0].mac "frames/sec rcvd" 3012.3084671105
scalar TestScenario.switchA.eth[0].mac "bits/sec sent" 0
scalar TestScenario.switchA.eth[0].mac "bits/sec rcvd" 9061023.8690684
scalar TestScenario.switchA.eth[0].mac "rx channel idle (%)" 100
scalar TestScenario.switchA.eth[0].mac "rx channel utilization (%)" 0
statistic TestScenario.switchA.eth[0].mac pMacDelay:histogram
field count 0
field mean -nan
field stddev -nan
field min -nan
field max -nan
field sum 0
field sqrsum 0
attr interpolationmode none
attr title "pMacDelay, histogram"
bin	-inf	0
bin	0	0
bin	1	0
statistic TestScenario.switchA.eth[0].mac eMacDelay:histogram
field count 0
field mean -nan
field stddev -nan
field min -nan
field max -nan
field sum 0
field sqrsum 0
attr interpolationmode none
attr title "eMacDelay, histogram"
bin	-inf	0
bin	0	0
bin	1	0
scalar TestScenario.switchA.eth[0].mac expressFramesEnqueued:count 0
attr interpolationmode none
attr source expressFrameEnqueuedWhileSendingPreemptableSignal
attr title "express frames enqueued, count"
scalar TestScenario.switchA.eth[0].mac mPacketsFull:count 0
attr interpolationmode none
attr source transmittedPreemptableFullSignal
attr title "mpackets full, count"
scalar TestScenario.switchA.eth[0].mac mPacketsFinal:count 0
attr interpolationmode none
attr source transmittedPreemptableFinalSignal
attr title "mPackets final, count"
scalar TestScenario.switchA.eth[0].mac mPacketsNonFinal:count 0
attr interpolationmode none
attr source transmittedPreemptableNonFinalSignal
attr title "mPackets non-final, count"
scalar TestScenario.switchA.eth[0].mac mPackets:count 0
attr interpolationmode none
attr source transmittedPreemptableFramePartSignal
attr title "mPackets, count"
scalar TestScenario.switchA.eth[0].mac preemptableFrames:count 0
attr interpolationmode none
attr source transmittedPreemptableFrameSignal
attr title "preemptableFrames, count"
scalar TestScenario.switchA.eth[0].mac expressFrames:count 0
attr interpolationmode none
attr source transmittedExpressFrameSignal
attr title "expressFrames, count"
scalar TestScenario.switchA.eth[0].mac preemptions:count 0
attr interpolationmode none
attr source preemptCurrentFrameSignal
attr title "preemptions, count"
scalar TestScenario.switchA.eth[0].mac rxPausePkUnits:count 0
attr interpolationmode none
attr title "pause units received, count"
scalar TestScenario.switchA.eth[0].mac rxPausePkUnits:sum 0
attr interpolationmode none
attr title "pause units received, sum"
scalar TestScenario.switchA.eth[0].mac txPausePkUnits:count 0
attr interpolationmode none
attr title "pause units sent, count"
scalar TestScenario.switchA.eth[0].mac txPausePkUnits:sum 0
attr interpolationmode none
attr title "pause units sent, sum"
scalar TestScenario.switchA.eth[0].mac rxPkOk:count 1
attr interpolationmode none
attr source rxPkOk
attr title "packets received OK, count"
scalar TestScenario.switchA.eth[0].mac rxPkOk:sum(packetBytes) 376
attr interpolationmode none
attr source rxPkOk
attr title "packets received OK, sum(packetBytes)"
scalar TestScenario.switchA.eth[0].mac txPk:count 0
attr interpolationmode none
attr source packetSentToLower
attr title "packets transmitted, count"
scalar TestScenario.switchA.eth[0].mac txPk:sum(packetBytes) 0
attr interpolationmode none
attr source packetSentToLower
attr title "packets transmitted, sum(packetBytes)"
scalar TestScenario.switchA.eth[0].mac packetReceivedFromUpper:count 0
attr interpolationmode none
attr source packetReceivedFromUpper
attr title "packet bytes from higher layer, count"
scalar TestScenario.switchA.eth[0].mac packetReceivedFromUpper:sum(packetBytes) 0
attr interpolationmode none
attr source packetReceivedFromUpper
attr title "packet bytes from higher layer, sum(packetBytes)"
scalar TestScenario.switchA.eth[0].mac passedUpPk:count 1
attr interpolationmode none
attr source packetSentToUpper
attr title "packets passed to higher layer, count"
scalar TestScenario.switchA.eth[0].mac passedUpPk:sum(packetBytes) 376
attr interpolationmode none
attr source packetSentToUpper
attr title "packets passed to higher layer, sum(packetBytes)"
scalar TestScenario.switchA.eth[0].mac packetDropIncorrectlyReceived:count 0
attr interpolationmode none
attr source packetDropReasonIsIncorrectlyReceived(packetDropped)
attr title "packet drop: incorrectly received, count"
scalar TestScenario.switchA.eth[0].mac packetDropIncorrectlyReceived:sum(packetBytes) 0
attr interpolationmode none
attr source packetDropReasonIsIncorrectlyReceived(packetDropped)
attr title "packet drop: incorrectly received, sum(packetBytes)"
scalar TestScenario.switchA.eth[0].mac packetDropInterfaceDown:count 0
attr interpolationmode none
attr source packetDropReasonIsInterfaceDown(packetDropped)
attr title "packet drop: interface down, count"
scalar TestScenario.switchA.eth[0].mac packetDropInterfaceDown:sum(packetBytes) 0
attr interpolationmode none
attr source packetDropReasonIsInterfaceDown(packetDropped)
attr title "packet drop: interface down, sum(packetBytes)"
scalar TestScenario.switchA.eth[0].mac packetDropNotAddressedToUs:count 0
attr interpolationmode none
attr source packetDropReasonIsNotAddressedToUs(packetDropped)
attr title "packet drop: not addressed to us, count"
scalar TestScenario.switchA.eth[0].mac packetDropNotAddressedToUs:sum(packetBytes) 0
attr interpolationmode none
attr source packetDropReasonIsNotAddressedToUs(packetDropped)
attr title "packet drop: not addressed to us, sum(packetBytes)"
scalar TestScenario.switchA.eth[0].qEncap packetDropped:count 0
attr interpolationmode none
attr source packetDropped
attr title "packet dropped, count"
scalar TestScenario.switchA.eth[0].qEncap packetDropped:sum(packetBytes) 0
attr interpolationmode none
attr source packetDropped
attr title "packet dropped, sum(packetBytes)"
scalar TestScenario.switchA.eth[1].queue.queues[0] dropPk:count 0
attr interpolationmode none
attr source dropPkByQueue
attr title "dropped packets, count"
scalar TestScenario.switchA.eth[1].queue.queues[0] rcvdPk:count 0
attr interpolationmode none
attr title "received packets, count"
statistic TestScenario.switchA.eth[1].queue.queues[0] queueingTime:histogram
field count 0
field mean -nan
field stddev -nan
field min -nan
field max -nan
field sum 0
field sqrsum 0
attr interpolationmode none
attr title "queueing time, histogram"
bin	-inf	0
bin	0	0
bin	1	0
scalar TestScenario.switchA.eth[1].queue.queues[0] queueLength:max 0
attr interpolationmode sample-hold
attr title "queue length, max"
scalar TestScenario.switchA.eth[1].queue.queues[0] queueLength:timeavg 0
attr interpolationmode sample-hold
attr title "queue length, timeavg"
scalar TestScenario.switchA.eth[1].queue.queues[1] dropPk:count 0
attr interpolationmode none
attr source dropPkByQueue
attr title "dropped packets, count"
scalar TestScenario.switchA.eth[1].queue.queues[1] rcvdPk:count 0
attr interpolationmode none
attr title "received packets, count"
statistic TestScenario.switchA.eth[1].queue.queues[1] queueingTime:histogram
field count 0
field mean -nan
field stddev -nan
field min -nan
field max -nan
field sum 0
field sqrsum 0
attr interpolationmode none
attr title "queueing time, histogram"
bin	-inf	0
bin	0	0
bin	1	0
scalar TestScenario.switchA.eth[1].queue.queues[1] queueLength:max 0
attr interpolationmode sample-hold
attr title "queue length, max"
scalar TestScenario.switchA.eth[1].queue.queues[1] queueLength:timeavg 0
attr interpolationmode sample-hold
attr title "queue length, timeavg"
scalar TestScenario.switchA.eth[1].queue.queues[2] dropPk:count 0
attr interpolationmode none
attr source dropPkByQueue
attr title "dropped packets, count"
scalar TestScenario.switchA.eth[1].queue.queues[2] rcvdPk:count 0
attr interpolationmode none
attr title "received packets, count"
statistic TestScenario.switchA.eth[1].queue.queues[2] queueingTime:histogram
field count 0
field mean -nan
field stddev -nan
field min -nan
field max -nan
field sum 0
field sqrsum 0
attr interpolationmode none
attr title "queueing time, histogram"
bin	-inf	0
bin	0	0
bin	1	0
scalar TestScenario.switchA.eth[1].queue.queues[2] queueLength:max 0
attr interpolationmode sample-hold
attr title "queue length, max"
scalar TestScenario.switchA.eth[1].queue.queues[2] queueLength:timeavg 0
attr interpolationmode sample-hold
attr title "queue length, timeavg"
scalar TestScenario.switchA.eth[1].queue.queues[3] dropPk:count 0
attr interpolationmode none
attr source dropPkByQueue
attr title "dropped packets, count"
scalar TestScenario.switchA.eth[1].queue.queues[3] rcvdPk:count 0
attr interpolationmode none
attr title "received packets, count"
statistic TestScenario.switchA.eth[1].queue.queues[3] queueingTime:histogram
field count 0
field mean -nan
field stddev -nan
field min -nan
field max -nan
field sum 0
field sqrsum 0
attr interpolationmode none
attr title "queueing time, histogram"
bin	-inf	0
bin	0	0
bin	1	0
scalar TestScenario.switchA.eth[1].queue.queues[3] queueLength:max 0
attr interpolationmode sample-hold
attr title "queue length, max"
scalar TestScenario.switchA.eth[1].queue.queues[3] queueLength:timeavg 0
attr interpolationmode sample-hold
attr title "queue length, timeavg"
scalar TestScenario.switchA.eth[1].queue.queues[4] dropPk:count 0
attr interpolationmode none
attr source dropPkByQueue
attr title "dropped packets, count"
scalar TestScenario.switchA.eth[1].queue.queues[4] rcvdPk:count 0
attr interpolationmode none
attr title "received packets, count"
statistic TestScenario.switchA.eth[1].queue.queues[4] queueingTime:histogram
field count 0
field mean -nan
field stddev -nan
field min -nan
field max -nan
field sum 0
field sqrsum 0
attr interpolationmode none
attr title "queueing time, histogram"
bin	-inf	0
bin	0	0
bin	1	0
scalar TestScenario.switchA.eth[1].queue.queues[4] queueLength:max 0
attr interpolationmode sample-hold
attr title "queue length, max"
scalar TestScenario.switchA.eth[1].queue.queues[4] queueLength:timeavg 0
attr interpolationmode sample-hold
attr title "queue length, timeavg"
scalar TestScenario.switchA.eth[1].queue.queues[5] dropPk:count 0
attr interpolationmode none
attr source dropPkByQueue
attr title "dropped packets, count"
scalar TestScenario.switchA.eth[1].queue.queues[5] rcvdPk:count 0
attr interpolationmode none
attr title "received packets, count"
statistic TestScenario.switchA.eth[1].queue.queues[5] queueingTime:histogram
field count 0
field mean -nan
field stddev -nan
field min -nan
field max -nan
field sum 0
field sqrsum 0
attr interpolationmode none
attr title "queueing time, histogram"
bin	-inf	0
bin	0	0
bin	1	0
scalar TestScenario.switchA.eth[1].queue.queues[5] queueLength:max 0
attr interpolationmode sample-hold
attr title "queue length, max"
scalar TestScenario.switchA.eth[1].queue.queues[5] queueLength:timeavg 0
attr interpolationmode sample-hold
attr title "queue length, timeavg"
scalar TestScenario.switchA.eth[1].queue.queues[6] dropPk:count 0
attr interpolationmode none
attr source dropPkByQueue
attr title "dropped packets, count"
scalar TestScenario.switchA.eth[1].queue.queues[6] rcvdPk:count 0
attr interpolationmode none
attr title "received packets, count"
statistic TestScenario.switchA.eth[1].queue.queues[6] queueingTime:histogram
field count 0
field mean -nan
field stddev -nan
field min -nan
field max -nan
field sum 0
field sqrsum 0
attr interpolationmode none
attr title "queueing time, histogram"
bin	-inf	0
bin	0	0
bin	1	0
scalar TestScenario.switchA.eth[1].queue.queues[6] queueLength:max 0
attr interpolationmode sample-hold
attr title "queue length, max"
scalar TestScenario.switchA.eth[1].queue.queues[6] queueLength:timeavg 0
attr interpolationmode sample-hold
attr title "queue length, timeavg"
scalar TestScenario.switchA.eth[1].queue.queues[7] dropPk:count 0
attr interpolationmode none
attr source dropPkByQueue
attr title "dropped packets, count"
scalar TestScenario.switchA.eth[1].queue.queues[7] rcvdPk:count 0
attr interpolationmode none
attr title "received packets, count"
statistic TestScenario.switchA.eth[1].queue.queues[7] queueingTime:histogram
field count 0
field mean -nan
field stddev -nan
field min -nan
field max -nan
field sum 0
field sqrsum 0
attr interpolationmode none
attr title "queueing time, histogram"
bin	-inf	0
bin	0	0
bin	1	0
scalar TestScenario.switchA.eth[1].queue.queues[7] queueLength:max 0
attr interpolationmode sample-hold
attr title "queue length, max"
scalar TestScenario.switchA.eth[1].queue.queues[7] queueLength:timeavg 0
attr interpolationmode sample-hold
attr title "queue length, timeavg"
scalar TestScenario.switchA.eth[1].mac "simulated time" 0.000331971314
scalar TestScenario.switchA.eth[1].mac full-duplex 1
scalar TestScenario.switchA.eth[1].mac "frames/sec sent" 0
scalar TestScenario.switchA.eth[1].mac "frames/sec rcvd" 78320.020144873
scalar TestScenario.switchA.eth[1].mac "bits/sec sent" 0
scalar TestScenario.switchA.eth[1].mac "bits/sec rcvd" 951118324.63934
scalar TestScenario.switchA.eth[1].mac "rx channel idle (%)" 100
scalar TestScenario.switchA.eth[1].mac "rx channel utilization (%)" 0
statistic TestScenario.switchA.eth[1].mac pMacDelay:histogram
field count 0
field mean -nan
field stddev -nan
field min -nan
field max -nan
field sum 0
field sqrsum 0
attr interpolationmode none
attr title "pMacDelay, histogram"
bin	-inf	0
bin	0	0
bin	1	0
statistic TestScenario.switchA.eth[1].mac eMacDelay:histogram
field count 0
field mean -nan
field stddev -nan
field min -nan
field max -nan
field sum 0
field sqrsum 0
attr interpolationmode none
attr title "eMacDelay, histogram"
bin	-inf	0
bin	0	0
bin	1	0
scalar TestScenario.switchA.eth[1].mac expressFramesEnqueued:count 0
attr interpolationmode none
attr source expressFrameEnqueuedWhileSendingPreemptableSignal
attr title "express frames enqueued, count"
scalar TestScenario.switchA.eth[1].mac mPacketsFull:count 0
attr interpolationmode none
attr source transmittedPreemptableFullSignal
attr title "mpackets full, count"
scalar TestScenario.switchA.eth[1].mac mPacketsFinal:count 0
attr interpolationmode none
attr source transmittedPreemptableFinalSignal
attr title "mPackets final, count"
scalar TestScenario.switchA.eth[1].mac mPacketsNonFinal:count 0
attr interpolationmode none
attr source transmittedPreemptableNonFinalSignal
attr title "mPackets non-final, count"
scalar TestScenario.switchA.eth[1].mac mPackets:count 0
attr interpolationmode none
attr source transmittedPreemptableFramePartSignal
attr title "mPackets, count"
scalar TestScenario.switchA.eth[1].mac preemptableFrames:count 0
attr interpolationmode none
attr source transmittedPreemptableFrameSignal
attr title "preemptableFrames, count"
scalar TestScenario.switchA.eth[1].mac expressFrames:count 0
attr interpolationmode none
attr source transmittedExpressFrameSignal
attr title "expressFrames, count"
scalar TestScenario.switchA.eth[1].mac preemptions:count 0
attr interpolationmode none
attr source preemptCurrentFrameSignal
attr title "preemptions, count"
scalar TestScenario.switchA.eth[1].mac rxPausePkUnits:count 0
attr interpolationmode none
attr title "pause units received, count"
scalar TestScenario.switchA.eth[1].mac rxPausePkUnits:sum 0
attr interpolationmode none
attr title "pause units received, sum"
scalar TestScenario.switchA.eth[1].mac txPausePkUnits:count 0
attr interpolationmode none
attr title "pause units sent, count"
scalar TestScenario.switchA.eth[1].mac txPausePkUnits:sum 0
attr interpolationmode none
attr title "pause units sent, sum"
scalar TestScenario.switchA.eth[1].mac rxPkOk:count 26
attr interpolationmode none
attr source rxPkOk
attr title "packets received OK, count"
scalar TestScenario.switchA.eth[1].mac rxPkOk:sum(packetBytes) 39468
attr interpolationmode none
attr source rxPkOk
attr title "packets received OK, sum(packetBytes)"
scalar TestScenario.switchA.eth[1].mac txPk:count 0
attr interpolationmode none
attr source packetSentToLower
attr title "packets transmitted, count"
scalar TestScenario.switchA.eth[1].mac txPk:sum(packetBytes) 0
attr interpolationmode none
attr source packetSentToLower
attr title "packets transmitted, sum(packetBytes)"
scalar TestScenario.switchA.eth[1].mac packetReceivedFromUpper:count 0
attr interpolationmode none
attr source packetReceivedFromUpper
attr title "packet bytes from higher layer, count"
scalar TestScenario.switchA.eth[1].mac packetReceivedFromUpper:sum(packetBytes) 0
attr interpolationmode none
attr source packetReceivedFromUpper
attr title "packet bytes from higher layer, sum(packetBytes)"
scalar TestScenario.switchA.eth[1].mac passedUpPk:count 26
attr interpolationmode none
attr source packetSentToUpper
attr title "packets passed to higher layer, count"
scalar TestScenario.switchA.eth[1].mac passedUpPk:sum(packetBytes) 39468
attr interpolationmode none
attr source packetSentToUpper
attr title "packets passed to higher layer, sum(packetBytes)"
scalar TestScenario.switchA.eth[1].mac packetDropIncorrectlyReceived:count 0
attr interpolationmode none
attr source packetDropReasonIsIncorrectlyReceived(packetDropped)
attr title "packet drop: incorrectly received, count"
scalar TestScenario.switchA.eth[1].mac packetDropIncorrectlyReceived:sum(packetBytes) 0
attr interpolationmode none
attr source packetDropReasonIsIncorrectlyReceived(packetDropped)
attr title "packet drop: incorrectly received, sum(packetBytes)"
scalar TestScenario.switchA.eth[1].mac packetDropInterfaceDown:count 0
attr interpolationmode none
attr source packetDropReasonIsInterfaceDown(packetDropped)
attr title "packet drop: interface down, count"
scalar TestScenario.switchA.eth[1].mac packetDropInterfaceDown:sum(packetBytes) 0
attr interpolationmode none
attr source packetDropReasonIsInterfaceDown(packetDropped)
attr title "packet drop: interface down, sum(packetBytes)"
scalar TestScenario.switchA.eth[1].mac packetDropNotAddressedToUs:count 0
attr interpolationmode none
attr source packetDropReasonIsNotAddressedToUs(packetDropped)
attr title "packet drop: not addressed to us, count"
scalar TestScenario.switchA.eth[1].mac packetDropNotAddressedToUs:sum(packetBytes) 0
attr interpolationmode none
attr source packetDropReasonIsNotAddressedToUs(packetDropped)
attr title "packet drop: not addressed to us, sum(packetBytes)"
scalar TestScenario.switchA.eth[1].qEncap packetDropped:count 0
attr interpolationmode none
attr source packetDropped
attr title "packet dropped, count"
scalar TestScenario.switchA.eth[1].qEncap packetDropped:sum(packetBytes) 0
attr interpolationmode none
attr source packetDropped
attr title "packet dropped, sum(packetBytes)"
scalar TestScenario.switchA.eth[2].queue.queues[0] dropPk:count 0
attr interpolationmode none
attr source dropPkByQueue
attr title "dropped packets, count"
scalar TestScenario.switchA.eth[2].queue.queues[0] rcvdPk:count 0
attr interpolationmode none
attr title "received packets, count"
statistic TestScenario.switchA.eth[2].queue.queues[0] queueingTime:histogram
field count 0
field mean -nan
field stddev -nan
field min -nan
field max -nan
field sum 0
field sqrsum 0
attr interpolationmode none
attr title "queueing time, histogram"
bin	-inf	0
bin	0	0
bin	1	0
scalar TestScenario.switchA.eth[2].queue.queues[0] queueLength:max 0
attr interpolationmode sample-hold
attr title "queue length, max"
scalar TestScenario.switchA.eth[2].queue.queues[0] queueLength:timeavg 0
attr interpolationmode sample-hold
attr title "queue length, timeavg"
scalar TestScenario.switchA.eth[2].queue.queues[1] dropPk:count 0
attr interpolationmode none
attr source dropPkByQueue
attr title "dropped packets, count"
scalar TestScenario.switchA.eth[2].queue.queues[1] rcvdPk:count 0
attr interpolationmode none
attr title "received packets, count"
statistic TestScenario.switchA.eth[2].queue.queues[1] queueingTime:histogram
field count 0
field mean -nan
field stddev -nan
field min -nan
field max -nan
field sum 0
field sqrsum 0
attr interpolationmode none
attr title "queueing time, histogram"
bin	-inf	0
bin	0	0
bin	1	0
scalar TestScenario.switchA.eth[2].queue.queues[1] queueLength:max 0
attr interpolationmode sample-hold
attr title "queue length, max"
scalar TestScenario.switchA.eth[2].queue.queues[1] queueLength:timeavg 0
attr interpolationmode sample-hold
attr title "queue length, timeavg"
scalar TestScenario.switchA.eth[2].queue.queues[2] dropPk:count 0
attr interpolationmode none
attr source dropPkByQueue
attr title "dropped packets, count"
scalar TestScenario.switchA.eth[2].queue.queues[2] rcvdPk:count 0
attr interpolationmode none
attr title "received packets, count"
statistic TestScenario.switchA.eth[2].queue.queues[2] queueingTime:histogram
field count 0
field mean -nan
field stddev -nan
field min -nan
field max -nan
field sum 0
field sqrsum 0
attr interpolationmode none
attr title "queueing time, histogram"
bin	-inf	0
bin	0	0
bin	1	0
scalar TestScenario.switchA.eth[2].queue.queues[2] queueLength:max 0
attr interpolationmode sample-hold
attr title "queue length, max"
scalar TestScenario.switchA.eth[2].queue.queues[2] queueLength:timeavg 0
attr interpolationmode sample-hold
attr title "queue length, timeavg"
scalar TestScenario.switchA.eth[2].queue.queues[3] dropPk:count 0
attr interpolationmode none
attr source dropPkByQueue
attr title "dropped packets, count"
scalar TestScenario.switchA.eth[2].queue.queues[3] rcvdPk:count 0
attr interpolationmode none
attr title "received packets, count"
statistic TestScenario.switchA.eth[2].queue.queues[3] queueingTime:histogram
field count 0
field mean -nan
field stddev -nan
field min -nan
field max -nan
field sum 0
field sqrsum 0
attr interpolationmode none
attr title "queueing time, histogram"
bin	-inf	0
bin	0	0
bin	1	0
scalar TestScenario.switchA.eth[2].queue.queues[3] queueLength:max 0
attr interpolationmode sample-hold
attr title "queue length, max"
scalar TestScenario.switchA.eth[2].queue.queues[3] queueLength:timeavg 0
attr interpolationmode sample-hold
attr title "queue length, timeavg"
scalar TestScenario.switchA.eth[2].queue.queues[4] dropPk:count 0
attr interpolationmode none
attr source dropPkByQueue
attr title "dropped packets, count"
scalar TestScenario.switchA.eth[2].queue.queues[4] rcvdPk:count 0
attr interpolationmode none
attr title "received packets, count"
statistic TestScenario.switchA.eth[2].queue.queues[4] queueingTime:histogram
field count 0
field mean -nan
field stddev -nan
field min -nan
field max -nan
field sum 0
field sqrsum 0
attr interpolationmode none
attr title "queueing time, histogram"
bin	-inf	0
bin	0	0
bin	1	0
scalar TestScenario.switchA.eth[2].queue.queues[4] queueLength:max 0
attr interpolationmode sample-hold
attr title "queue length, max"
scalar TestScenario.switchA.eth[2].queue.queues[4] queueLength:timeavg 0
attr interpolationmode sample-hold
attr title "queue length, timeavg"
scalar TestScenario.switchA.eth[2].queue.queues[5] dropPk:count 0
attr interpolationmode none
attr source dropPkByQueue
attr title "dropped packets, count"
scalar TestScenario.switchA.eth[2].queue.queues[5] rcvdPk:count 0
attr interpolationmode none
attr title "received packets, count"
statistic TestScenario.switchA.eth[2].queue.queues[5] queueingTime:histogram
field count 0
field mean -nan
field stddev -nan
field min -nan
field max -nan
field sum 0
field sqrsum 0
attr interpolationmode none
attr title "queueing time, histogram"
bin	-inf	0
bin	0	0
bin	1	0
scalar TestScenario.switchA.eth[2].queue.queues[5] queueLength:max 0
attr interpolationmode sample-hold
attr title "queue length, max"
scalar TestScenario.switchA.eth[2].queue.queues[5] queueLength:timeavg 0
attr interpolationmode sample-hold
attr title "queue length, timeavg"
scalar TestScenario.switchA.eth[2].queue.queues[6] dropPk:count 0
attr interpolationmode none
attr source dropPkByQueue
attr title "dropped packets, count"
scalar TestScenario.switchA.eth[2].queue.queues[6] rcvdPk:count 0
attr interpolationmode none
attr title "received packets, count"
statistic TestScenario.switchA.eth[2].queue.queues[6] queueingTime:histogram
field count 0
field mean -nan
field stddev -nan
field min -nan
field max -nan
field sum 0
field sqrsum 0
attr interpolationmode none
attr title "queueing time, histogram"
bin	-inf	0
bin	0	0
bin	1	0
scalar TestScenario.switchA.eth[2].queue.queues[6] queueLength:max 0
attr interpolationmode sample-hold
attr title "queue length, max"
scalar TestScenario.switchA.eth[2].queue.queues[6] queueLength:timeavg 0
attr interpolationmode sample-hold
attr title "queue length, timeavg"
scalar TestScenario.switchA.eth[2].queue.queues[7] dropPk:count 0
attr interpolationmode none
attr source dropPkByQueue
attr title "dropped packets, count"
scalar TestScenario.switchA.eth[2].queue.queues[7] rcvdPk:count 0
attr interpolationmode none
attr title "received packets, count"
statistic TestScenario.switchA.eth[2].queue.queues[7] queueingTime:histogram
field count 0
field mean -nan
field stddev -nan
field min -nan
field max -nan
field sum 0
field sqrsum 0
attr interpolationmode none
attr title "queueing time, histogram"
bin	-inf	0
bin	0	0
bin	1	0
scalar TestScenario.switchA.eth[2].queue.queues[7] queueLength:max 0
attr interpolationmode sample-hold
attr title "queue length, max"
scalar TestScenario.switchA.eth[2].queue.queues[7] queueLength:timeavg 0
attr interpolationmode sample-hold
attr title "queue length, timeavg"
scalar TestScenario.switchA.eth[2].mac "simulated time" 0.000331971314
scalar TestScenario.switchA.eth[2].mac full-duplex 1
scalar TestScenario.switchA.eth[2].mac "frames/sec sent" 0
scalar TestScenario.switchA.eth[2].mac "frames/sec rcvd" 78320.020144873
scalar TestScenario.switchA.eth[2].mac "bits/sec sent" 0
scalar TestScenario.switchA.eth[2].mac "bits/sec rcvd" 951118324.63934
scalar TestScenario.switchA.eth[2].mac "rx channel idle (%)" 100
scalar TestScenario.switchA.eth[2].mac "rx channel utilization (%)" 0
statistic TestScenario.switchA.eth[2].mac pMacDelay:histogram
field count 0
field mean -nan
field stddev -nan
field min -nan
field max -nan
field sum 0
field sqrsum 0
attr interpolationmode none
attr title "pMacDelay, histogram"
bin	-inf	0
bin	0	0
bin	1	0
statistic TestScenario.switchA.eth[2].mac eMacDelay:histogram
field count 0
field mean -nan
field stddev -nan
field min -nan
field max -nan
field sum 0
field sqrsum 0
attr interpolationmode none
attr title "eMacDelay, histogram"
bin	-inf	0
bin	0	0
bin	1	0
scalar TestScenario.switchA.eth[2].mac expressFramesEnqueued:count 0
attr interpolationmode none
attr source expressFrameEnqueuedWhileSendingPreemptableSignal
attr title "express frames enqueued, count"
scalar TestScenario.switchA.eth[2].mac mPacketsFull:count 0
attr interpolationmode none
attr source transmittedPreemptableFullSignal
attr title "mpackets full, count"
scalar TestScenario.switchA.eth[2].mac mPacketsFinal:count 0
attr interpolationmode none
attr source transmittedPreemptableFinalSignal
attr title "mPackets final, count"
scalar TestScenario.switchA.eth[2].mac mPacketsNonFinal:count 0
attr interpolationmode none
attr source transmittedPreemptableNonFinalSignal
attr title "mPackets non-final, count"
scalar TestScenario.switchA.eth[2].mac mPackets:count 0
attr interpolationmode none
attr source transmittedPreemptableFramePartSignal
attr title "mPackets, count"
scalar TestScenario.switchA.eth[2].mac preemptableFrames:count 0
attr interpolationmode none
attr source transmittedPreemptableFrameSignal
attr title "preemptableFrames, count"
scalar TestScenario.switchA.eth[2].mac expressFrames:count 0
attr interpolationmode none
attr source transmittedExpressFrameSignal
attr title "expressFrames, count"
scalar TestScenario.switchA.eth[2].mac preemptions:count 0
attr interpolationmode none
attr source preemptCurrentFrameSignal
attr title "preemptions, count"
scalar TestScenario.switchA.eth[2].mac rxPausePkUnits:count 0
attr interpolationmode none
attr title "pause units received, count"
scalar TestScenario.switchA.eth[2].mac rxPausePkUnits:sum 0
attr interpolationmode none
attr title "pause units received, sum"
scalar TestScenario.switchA.eth[2].mac txPausePkUnits:count 0
attr interpolationmode none
attr title "pause units sent, count"
scalar TestScenario.switchA.eth[2].mac txPausePkUnits:sum 0
attr interpolationmode none
attr title "pause units sent, sum"
scalar TestScenario.switchA.eth[2].mac rxPkOk:count 26
attr interpolationmode none
attr source rxPkOk
attr title "packets received OK, count"
scalar TestScenario.switchA.eth[2].mac rxPkOk:sum(packetBytes) 39468
attr interpolationmode none
attr source rxPkOk
attr title "packets received OK, sum(packetBytes)"
scalar TestScenario.switchA.eth[2].mac txPk:count 0
attr interpolationmode none
attr source packetSentToLower
attr title "packets transmitted, count"
scalar TestScenario.switchA.eth[2].mac txPk:sum(packetBytes) 0
attr interpolationmode none
attr source packetSentToLower
attr title "packets transmitted, sum(packetBytes)"
scalar TestScenario.switchA.eth[2].mac packetReceivedFromUpper:count 0
attr interpolationmode none
attr source packetReceivedFromUpper
attr title "packet bytes from higher layer, count"
scalar TestScenario.switchA.eth[2].mac packetReceivedFromUpper:sum(packetBytes) 0
attr interpolationmode none
attr source packetReceivedFromUpper
attr title "packet bytes from higher layer, sum(packetBytes)"
scalar TestScenario.switchA.eth[2].mac passedUpPk:count 26
attr interpolationmode none
attr source packetSentToUpper
attr title "packets passed to higher layer, count"
scalar TestScenario.switchA.eth[2].mac passedUpPk:sum(packetBytes) 39468
attr interpolationmode none
attr source packetSentToUpper
attr title "packets passed to higher layer, sum(packetBytes)"
scalar TestScenario.switchA.eth[2].mac packetDropIncorrectlyReceived:count 0
attr interpolationmode none
attr source packetDropReasonIsIncorrectlyReceived(packetDropped)
attr title "packet drop: incorrectly received, count"
scalar TestScenario.switchA.eth[2].mac packetDropIncorrectlyReceived:sum(packetBytes) 0
attr interpolationmode none
attr source packetDropReasonIsIncorrectlyReceived(packetDropped)
attr title "packet drop: incorrectly received, sum(packetBytes)"
scalar TestScenario.switchA.eth[2].mac packetDropInterfaceDown:count 0
attr interpolationmode none
attr source packetDropReasonIsInterfaceDown(packetDropped)
attr title "packet drop: interface down, count"
scalar TestScenario.switchA.eth[2].mac packetDropInterfaceDown:sum(packetBytes) 0
attr interpolationmode none
attr source packetDropReasonIsInterfaceDown(packetDropped)
attr title "packet drop: interface down, sum(packetBytes)"
scalar TestScenario.switchA.eth[2].mac packetDropNotAddressedToUs:count 0
attr interpolationmode none
attr source packetDropReasonIsNotAddressedToUs(packetDropped)
attr title "packet drop: not addressed to us, count"
scalar TestScenario.switchA.eth[2].mac packetDropNotAddressedToUs:sum(packetBytes) 0
attr interpolationmode none
attr source packetDropReasonIsNotAddressedToUs(packetDropped)
attr title "packet drop: not addressed to us, sum(packetBytes)"
scalar TestScenario.switchA.eth[2].qEncap packetDropped:count 0
attr interpolationmode none
attr source packetDropped
attr title "packet dropped, count"
scalar TestScenario.switchA.eth[2].qEncap packetDropped:sum(packetBytes) 0
attr interpolationmode none
attr source packetDropped
attr title "packet dropped, sum(packetBytes)"
scalar TestScenario.switchA.eth[3].queue.queues[0] dropPk:count 0
attr interpolationmode none
attr source dropPkByQueue
attr title "dropped packets, count"
scalar TestScenario.switchA.eth[3].queue.queues[0] rcvdPk:count 0
attr interpolationmode none
attr title "received packets, count"
statistic TestScenario.switchA.eth[3].queue.queues[0] queueingTime:histogram
field count 0
field mean -nan
field stddev -nan
field min -nan
field max -nan
field sum 0
field sqrsum 0
attr interpolationmode none
attr title "queueing time, histogram"
bin	-inf	0
bin	0	0
bin	1	0
scalar TestScenario.switchA.eth[3].queue.queues[0] queueLength:max 0
attr interpolationmode sample-hold
attr title "queue length, max"
scalar TestScenario.switchA.eth[3].queue.queues[0] queueLength:timeavg 0
attr interpolationmode sample-hold
attr title "queue length, timeavg"
scalar TestScenario.switchA.eth[3].queue.queues[1] dropPk:count 0
attr interpolationmode none
attr source dropPkByQueue
attr title "dropped packets, count"
scalar TestScenario.switchA.eth[3].queue.queues[1] rcvdPk:count 0
attr interpolationmode none
attr title "received packets, count"
statistic TestScenario.switchA.eth[3].queue.queues[1] queueingTime:histogram
field count 0
field mean -nan
field stddev -nan
field min -nan
field max -nan
field sum 0
field sqrsum 0
attr interpolationmode none
attr title "queueing time, histogram"
bin	-inf	0
bin	0	0
bin	1	0
scalar TestScenario.switchA.eth[3].queue.queues[1] queueLength:max 0
attr interpolationmode sample-hold
attr title "queue length, max"
scalar TestScenario.switchA.eth[3].queue.queues[1] queueLength:timeavg 0
attr interpolationmode sample-hold
attr title "queue length, timeavg"
scalar TestScenario.switchA.eth[3].queue.queues[2] dropPk:count 0
attr interpolationmode none
attr source dropPkByQueue
attr title "dropped packets, count"
scalar TestScenario.switchA.eth[3].queue.queues[2] rcvdPk:count 0
attr interpolationmode none
attr title "received packets, count"
statistic TestScenario.switchA.eth[3].queue.queues[2] queueingTime:histogram
field count 0
field mean -nan
field stddev -nan
field min -nan
field max -nan
field sum 0
field sqrsum 0
attr interpolationmode none
attr title "queueing time, histogram"
bin	-inf	0
bin	0	0
bin	1	0
scalar TestScenario.switchA.eth[3].queue.queues[2] queueLength:max 0
attr interpolationmode sample-hold
attr title "queue length, max"
scalar TestScenario.switchA.eth[3].queue.queues[2] queueLength:timeavg 0
attr interpolationmode sample-hold
attr title "queue length, timeavg"
scalar TestScenario.switchA.eth[3].queue.queues[3] dropPk:count 0
attr interpolationmode none
attr source dropPkByQueue
attr title "dropped packets, count"
scalar TestScenario.switchA.eth[3].queue.queues[3] rcvdPk:count 0
attr interpolationmode none
attr title "received packets, count"
statistic TestScenario.switchA.eth[3].queue.queues[3] queueingTime:histogram
field count 0
field mean -nan
field stddev -nan
field min -nan
field max -nan
field sum 0
field sqrsum 0
attr interpolationmode none
attr title "queueing time, histogram"
bin	-inf	0
bin	0	0
bin	1	0
scalar TestScenario.switchA.eth[3].queue.queues[3] queueLength:max 0
attr interpolationmode sample-hold
attr title "queue length, max"
scalar TestScenario.switchA.eth[3].queue.queues[3] queueLength:timeavg 0
attr interpolationmode sample-hold
attr title "queue length, timeavg"
scalar TestScenario.switchA.eth[3].queue.queues[4] dropPk:count 0
attr interpolationmode none
attr source dropPkByQueue
attr title "dropped packets, count"
scalar TestScenario.switchA.eth[3].queue.queues[4] rcvdPk:count 0
attr interpolationmode none
attr title "received packets, count"
statistic TestScenario.switchA.eth[3].queue.queues[4] queueingTime:histogram
field count 0
field mean -nan
field stddev -nan
field min -nan
field max -nan
field sum 0
field sqrsum 0
attr interpolationmode none
attr title "queueing time, histogram"
bin	-inf	0
bin	0	0
bin	1	0
scalar TestScenario.switchA.eth[3].queue.queues[4] queueLength:max 0
attr interpolationmode sample-hold
attr title "queue length, max"
scalar TestScenario.switchA.eth[3].queue.queues[4] queueLength:timeavg 0
attr interpolationmode sample-hold
attr title "queue length, timeavg"
scalar TestScenario.switchA.eth[3].queue.queues[5] dropPk:count 0
attr interpolationmode none
attr source dropPkByQueue
attr title "dropped packets, count"
scalar TestScenario.switchA.eth[3].queue.queues[5] rcvdPk:count 25
attr interpolationmode none
attr title "received packets, count"
statistic TestScenario.switchA.eth[3].queue.queues[5] queueingTime:histogram
field count 1
field mean 0.000182996
field stddev -nan
field min 0.000182996
field max 0.000182996
field sum 0.000182996
field sqrsum 3.3487536016e-08
attr interpolationmode none
attr title "queueing time, histogram"
bin	-inf	0
bin	0	1
bin	0.01	0
bin	0.02	0
bin	0.03	0
bin	0.04	0
bin	0.05	0
bin	0.06	0
bin	0.07	0
bin	0.08	0
bin	0.09	0
bin	0.1	0
bin	0.11	0
bin	0.12	0
bin	0.13	0
bin	0.14	0
bin	0.15	0
bin	0.16	0
bin	0.17	0
bin	0.18	0
bin	0.19	0
bin	0.2	0
bin	0.21	0
bin	0.22	0
bin	0.23	0
bin	0.24	0
bin	0.25	0
bin	0.26	0
bin	0.27	0
bin	0.28	0
bin	0.29	0
bin	0.3	0
bin	0.31	0
bin	0.32	0
bin	0.33	0
bin	0.34	0
bin	0.35	0
bin	0.36	0
bin	0.37	0
bin	0.38	0
bin	0.39	0
bin	0.4	0
bin	0.41	0
bin	0.42	0
bin	0.43	0
bin	0.44	0
bin	0.45	0
bin	0.46	0
bin	0.47	0
bin	0.48	0
bin	0.49	0
bin	0.5	0
bin	0.51	0
scalar TestScenario.switchA.eth[3].queue.queues[5] queueLength:max 24
attr interpolationmode sample-hold
attr title "queue length, max"
scalar TestScenario.switchA.eth[3].queue.queues[5] queueLength:timeavg 11.313373709151
attr interpolationmode sample-hold
attr title "queue length, timeavg"
scalar TestScenario.switchA.eth[3].queue.queues[6] dropPk:count 0
attr interpolationmode none
attr source dropPkByQueue
attr title "dropped packets, count"
scalar TestScenario.switchA.eth[3].queue.queues[6] rcvdPk:count 25
attr interpolationmode none
attr title "received packets, count"
statistic TestScenario.switchA.eth[3].queue.queues[6] queueingTime:histogram
field count 2
field mean 0.0002269
field stddev 7.9490115913867e-05
field min 0.000170692
field max 0.000283108
field sum 0.0004538
field sqrsum 1.09285898528e-07
attr interpolationmode none
attr title "queueing time, histogram"
bin	-inf	0
bin	0.000142	0
bin	0.000144	0
bin	0.000146	0
bin	0.000148	0
bin	0.00015	0
bin	0.000152	0
bin	0.000154	0
bin	0.000156	0
bin	0.000158	0
bin	0.00016	0
bin	0.000162	0
bin	0.000164	0
bin	0.000166	0
bin	0.000168	0
bin	0.00017	1
bin	0.000172	0
bin	0.000174	0
bin	0.000176	0
bin	0.000178	0
bin	0.00018	0
bin	0.000182	0
bin	0.000184	0
bin	0.000186	0
bin	0.000188	0
bin	0.00019	0
bin	0.000192	0
bin	0.000194	0
bin	0.000196	0
bin	0.000198	0
bin	0.0002	0
bin	0.000202	0
bin	0.000204	0
bin	0.000206	0
bin	0.000208	0
bin	0.00021	0
bin	0.000212	0
bin	0.000214	0
bin	0.000216	0
bin	0.000218	0
bin	0.00022	0
bin	0.000222	0
bin	0.000224	0
bin	0.000226	0
bin	0.000228	0
bin	0.00023	0
bin	0.000232	0
bin	0.000234	0
bin	0.000236	0
bin	0.000238	0
bin	0.00024	0
bin	0.000242	0
bin	0.000244	0
bin	0.000246	0
bin	0.000248	0
bin	0.00025	0
bin	0.000252	0
bin	0.000254	0
bin	0.000256	0
bin	0.000258	0
bin	0.00026	0
bin	0.000262	0
bin	0.000264	0
bin	0.000266	0
bin	0.000268	0
bin	0.00027	0
bin	0.000272	0
bin	0.000274	0
bin	0.000276	0
bin	0.000278	0
bin	0.00028	0
bin	0.000282	1
bin	0.000284	0
bin	0.000286	0
bin	0.000288	0
bin	0.00029	0
bin	0.000292	0
bin	0.000294	0
bin	0.000296	0
bin	0.000298	0
bin	0.0003	0
bin	0.000302	0
bin	0.000304	0
bin	0.000306	0
bin	0.000308	0
bin	0.00031	0
bin	0.000312	0
scalar TestScenario.switchA.eth[3].queue.queues[6] queueLength:max 24
attr interpolationmode sample-hold
attr title "queue length, max"
scalar TestScenario.switchA.eth[3].queue.queues[6] queueLength:timeavg 11.254467071212
attr interpolationmode sample-hold
attr title "queue length, timeavg"
scalar TestScenario.switchA.eth[3].queue.queues[7] dropPk:count 0
attr interpolationmode none
attr source dropPkByQueue
attr title "dropped packets, count"
scalar TestScenario.switchA.eth[3].queue.queues[7] rcvdPk:count 1
attr interpolationmode none
attr title "received packets, count"
statistic TestScenario.switchA.eth[3].queue.queues[7] queueingTime:histogram
field count 1
field mean 0
field stddev -nan
field min 0
field max 0
field sum 0
field sqrsum 0
attr interpolationmode none
attr title "queueing time, histogram"
bin	-inf	0
bin	-0.5	0
bin	-0.48	0
bin	-0.46	0
bin	-0.44	0
bin	-0.42	0
bin	-0.4	0
bin	-0.38	0
bin	-0.36	0
bin	-0.34	0
bin	-0.32	0
bin	-0.3	0
bin	-0.28	0
bin	-0.26	0
bin	-0.24	0
bin	-0.22	0
bin	-0.2	0
bin	-0.18	0
bin	-0.16	0
bin	-0.14	0
bin	-0.12	0
bin	-0.1	0
bin	-0.08	0
bin	-0.06	0
bin	-0.04	0
bin	-0.02	0
bin	0	1
bin	0.02	0
bin	0.04	0
bin	0.06	0
bin	0.08	0
bin	0.1	0
bin	0.12	0
bin	0.14	0
bin	0.16	0
bin	0.18	0
bin	0.2	0
bin	0.22	0
bin	0.24	0
bin	0.26	0
bin	0.28	0
bin	0.3	0
bin	0.32	0
bin	0.34	0
bin	0.36	0
bin	0.38	0
bin	0.4	0
bin	0.42	0
bin	0.44	0
bin	0.46	0
bin	0.48	0
bin	0.5	0
scalar TestScenario.switchA.eth[3].queue.queues[7] queueLength:max 1
attr interpolationmode sample-hold
attr title "queue length, max"
scalar TestScenario.switchA.eth[3].queue.queues[7] queueLength:timeavg 0
attr interpolationmode sample-hold
attr title "queue length, timeavg"
scalar TestScenario.switchA.eth[3].mac "simulated time" 0.000331971314
scalar TestScenario.switchA.eth[3].mac full-duplex 1
scalar TestScenario.switchA.eth[3].mac "frames/sec sent" 9036.9254013315
scalar TestScenario.switchA.eth[3].mac "frames/sec rcvd" 0
scalar TestScenario.switchA.eth[3].mac "bits/sec sent" 82223971.918248
scalar TestScenario.switchA.eth[3].mac "bits/sec rcvd" 0
scalar TestScenario.switchA.eth[3].mac "rx channel idle (%)" 100
scalar TestScenario.switchA.eth[3].mac "rx channel utilization (%)" 0
statistic TestScenario.switchA.eth[3].mac pMacDelay:histogram
field count 0
field mean -nan
field stddev -nan
field min -nan
field max -nan
field sum 0
field sqrsum 0
attr interpolationmode none
attr title "pMacDelay, histogram"
bin	-inf	0
bin	0	0
bin	1	0
statistic TestScenario.switchA.eth[3].mac eMacDelay:histogram
field count 4
field mean 0.000188799
field stddev 0.00012684115892985
field min 1.8172e-05
field max 0.00032472
field sum 0.000755196
field sqrsum 1.908462884e-07
attr interpolationmode none
attr title "eMacDelay, histogram"
bin	-inf	0
bin	0	0
bin	5e-06	0
bin	1e-05	0
bin	1.5e-05	1
bin	2e-05	0
bin	2.5e-05	0
bin	3e-05	0
bin	3.5e-05	0
bin	4e-05	0
bin	4.5e-05	0
bin	5e-05	0
bin	5.5e-05	0
bin	6e-05	0
bin	6.5e-05	0
bin	7e-05	0
bin	7.5e-05	0
bin	8e-05	0
bin	8.5e-05	0
bin	9e-05	0
bin	9.5e-05	0
bin	0.0001	0
bin	0.000105	0
bin	0.00011	0
bin	0.000115	0
bin	0.00012	0
bin	0.000125	0
bin	0.00013	0
bin	0.000135	0
bin	0.00014	0
bin	0.000145	0
bin	0.00015	0
bin	0.000155	0
bin	0.00016	0
bin	0.000165	0
bin	0.00017	0
bin	0.000175	0
bin	0.00018	0
bin	0.000185	0
bin	0.00019	0
bin	0.000195	1
bin	0.0002	0
bin	0.000205	0
bin	0.00021	1
bin	0.000215	0
bin	0.00022	0
bin	0.000225	0
bin	0.00023	0
bin	0.000235	0
bin	0.00024	0
bin	0.000245	0
bin	0.00025	0
bin	0.000255	0
bin	0.00026	0
bin	0.000265	0
bin	0.00027	0
bin	0.000275	0
bin	0.00028	0
bin	0.000285	0
bin	0.00029	0
bin	0.000295	0
bin	0.0003	0
bin	0.000305	0
bin	0.00031	0
bin	0.000315	0
bin	0.00032	1
bin	0.000325	0
bin	0.00033	0
bin	0.000335	0
bin	0.00034	0
bin	0.000345	0
bin	0.00035	0
bin	0.000355	0
bin	0.00036	0
bin	0.000365	0
bin	0.00037	0
bin	0.000375	0
bin	0.00038	0
bin	0.000385	0
bin	0.00039	0
bin	0.000395	0
bin	0.0004	0
bin	0.000405	0
scalar TestScenario.switchA.eth[3].mac expressFramesEnqueued:count 0
attr interpolationmode none
attr source expressFrameEnqueuedWhileSendingPreemptableSignal
attr title "express frames enqueued, count"
scalar TestScenario.switchA.eth[3].mac mPacketsFull:count 0
attr interpolationmode none
attr source transmittedPreemptableFullSignal
attr title "mpackets full, count"
scalar TestScenario.switchA.eth[3].mac mPacketsFinal:count 0
attr interpolationmode none
attr source transmittedPreemptableFinalSignal
attr title "mPackets final, count"
scalar TestScenario.switchA.eth[3].mac mPacketsNonFinal:count 0
attr interpolationmode none
attr source transmittedPreemptableNonFinalSignal
attr title "mPackets non-final, count"
scalar TestScenario.switchA.eth[3].mac mPackets:count 0
attr interpolationmode none
attr source transmittedPreemptableFramePartSignal
attr title "mPackets, count"
scalar TestScenario.switchA.eth[3].mac preemptableFrames:count 0
attr interpolationmode none
attr source transmittedPreemptableFrameSignal
attr title "preemptableFrames, count"
scalar TestScenario.switchA.eth[3].mac expressFrames:count 3
attr interpolationmode none
attr source transmittedExpressFrameSignal
attr title "expressFrames, count"
scalar TestScenario.switchA.eth[3].mac preemptions:count 0
attr interpolationmode none
attr source preemptCurrentFrameSignal
attr title "preemptions, count"
scalar TestScenario.switchA.eth[3].mac rxPausePkUnits:count 0
attr interpolationmode none
attr title "pause units received, count"
scalar TestScenario.switchA.eth[3].mac rxPausePkUnits:sum 0
attr interpolationmode none
attr title "pause units received, sum"
scalar TestScenario.switchA.eth[3].mac txPausePkUnits:count 0
attr interpolationmode none
attr title "pause units sent, count"
scalar TestScenario.switchA.eth[3].mac txPausePkUnits:sum 0
attr interpolationmode none
attr title "pause units sent, sum"
scalar TestScenario.switchA.eth[3].mac rxPkOk:count 0
attr interpolationmode none
attr source rxPkOk
attr title "packets received OK, count"
scalar TestScenario.switchA.eth[3].mac rxPkOk:sum(packetBytes) 0
attr interpolationmode none
attr source rxPkOk
attr title "packets received OK, sum(packetBytes)"
scalar TestScenario.switchA.eth[3].mac txPk:count 3
attr interpolationmode none
attr source packetSentToLower
attr title "packets transmitted, count"
scalar TestScenario.switchA.eth[3].mac txPk:sum(packetBytes) 3412
attr interpolationmode none
attr source packetSentToLower
attr title "packets transmitted, sum(packetBytes)"
scalar TestScenario.switchA.eth[3].mac packetReceivedFromUpper:count 4
attr interpolationmode none
attr source packetReceivedFromUpper
attr title "packet bytes from higher layer, count"
scalar TestScenario.switchA.eth[3].mac packetReceivedFromUpper:sum(packetBytes) 4930
attr interpolationmode none
attr source packetReceivedFromUpper
attr title "packet bytes from higher layer, sum(packetBytes)"
scalar TestScenario.switchA.eth[3].mac passedUpPk:count 0
attr interpolationmode none
attr source packetSentToUpper
attr title "packets passed to higher layer, count"
scalar TestScenario.switchA.eth[3].mac passedUpPk:sum(packetBytes) 0
attr interpolationmode none
attr source packetSentToUpper
attr title "packets passed to higher layer, sum(packetBytes)"
scalar TestScenario.switchA.eth[3].mac packetDropIncorrectlyReceived:count 0
attr interpolationmode none
attr source packetDropReasonIsIncorrectlyReceived(packetDropped)
attr title "packet drop: incorrectly received, count"
scalar TestScenario.switchA.eth[3].mac packetDropIncorrectlyReceived:sum(packetBytes) 0
attr interpolationmode none
attr source packetDropReasonIsIncorrectlyReceived(packetDropped)
attr title "packet drop: incorrectly received, sum(packetBytes)"
scalar TestScenario.switchA.eth[3].mac packetDropInterfaceDown:count 0
attr interpolationmode none
attr source packetDropReasonIsInterfaceDown(packetDropped)
attr title "packet drop: interface down, count"
scalar TestScenario.switchA.eth[3].mac packetDropInterfaceDown:sum(packetBytes) 0
attr interpolationmode none
attr source packetDropReasonIsInterfaceDown(packetDropped)
attr title "packet drop: interface down, sum(packetBytes)"
scalar TestScenario.switchA.eth[3].mac packetDropNotAddressedToUs:count 0
attr interpolationmode none
attr source packetDropReasonIsNotAddressedToUs(packetDropped)
attr title "packet drop: not addressed to us, count"
scalar TestScenario.switchA.eth[3].mac packetDropNotAddressedToUs:sum(packetBytes) 0
attr interpolationmode none
attr source packetDropReasonIsNotAddressedToUs(packetDropped)
attr title "packet drop: not addressed to us, sum(packetBytes)"
scalar TestScenario.switchA.eth[3].qEncap packetDropped:count 0
attr interpolationmode none
attr source packetDropped
attr title "packet dropped, count"
scalar TestScenario.switchA.eth[3].qEncap packetDropped:sum(packetBytes) 0
attr interpolationmode none
attr source packetDropped
attr title "packet dropped, sum(packetBytes)"
statistic TestScenario.switchA.processingDelay delay:stats
field count 53
field mean 5e-06
field stddev 0
field min 5e-06
field max 5e-06
field sum 0.000265
field sqrsum 1.325e-09
attr interpolationmode none
attr source delay
attr title "packet delay, stats"
scalar TestScenario.switchA.processingDelay packetReceived:count 53
attr interpolationmode none
attr source packetReceived
attr title "packets received, count"
scalar TestScenario.switchA.processingDelay packetReceived:sum(packetBytes) 79312
attr interpolationmode none
attr source packetReceived
attr title "packets received, sum(packetBytes)"
scalar TestScenario.switchA.processingDelay packetSent:count 51
attr interpolationmode none
attr source packetSent
attr title "packets sent, count"
scalar TestScenario.switchA.processingDelay packetSent:sum(packetBytes) 76276
attr interpolationmode none
attr source packetSent
attr title "packets sent, sum(packetBytes)"
scalar TestScenario.switchB.eth[0].queue.queues[0] dropPk:count 0
attr interpolationmode none
attr source dropPkByQueue
attr title "dropped packets, count"
scalar TestScenario.switchB.eth[0].queue.queues[0] rcvdPk:count 0
attr interpolationmode none
attr title "received packets, count"
statistic TestScenario.switchB.eth[0].queue.queues[0] queueingTime:histogram
field count 0
field mean -nan
field stddev -nan
field min -nan
field max -nan
field sum 0
field sqrsum 0
attr interpolationmode none
attr title "queueing time, histogram"
bin	-inf	0
bin	0	0
bin	1	0
scalar TestScenario.switchB.eth[0].queue.queues[0] queueLength:max 0
attr interpolationmode sample-hold
attr title "queue length, max"
scalar TestScenario.switchB.eth[0].queue.queues[0] queueLength:timeavg 0
attr interpolationmode sample-hold
attr title "queue length, timeavg"
scalar TestScenario.switchB.eth[0].queue.queues[1] dropPk:count 0
attr interpolationmode none
attr source dropPkByQueue
attr title "dropped packets, count"
scalar TestScenario.switchB.eth[0].queue.queues[1] rcvdPk:count 0
attr interpolationmode none
attr title "received packets, count"
statistic TestScenario.switchB.eth[0].queue.queues[1] queueingTime:histogram
field count 0
field mean -nan
field stddev -nan
field min -nan
field max -nan
field sum 0
field sqrsum 0
attr interpolationmode none
attr title "queueing time, histogram"
bin	-inf	0
bin	0	0
bin	1	0
scalar TestScenario.switchB.eth[0].queue.queues[1] queueLength:max 0
attr interpolationmode sample-hold
attr title "queue length, max"
scalar TestScenario.switchB.eth[0].queue.queues[1] queueLength:timeavg 0
attr interpolationmode sample-hold
attr title "queue length, timeavg"
scalar TestScenario.switchB.eth[0].queue.queues[2] dropPk:count 0
attr interpolationmode none
attr source dropPkByQueue
attr title "dropped packets, count"
scalar TestScenario.switchB.eth[0].queue.queues[2] rcvdPk:count 0
attr interpolationmode none
attr title "received packets, count"
statistic TestScenario.switchB.eth[0].queue.queues[2] queueingTime:histogram
field count 0
field mean -nan
field stddev -nan
field min -nan
field max -nan
field sum 0
field sqrsum 0
attr interpolationmode none
attr title "queueing time, histogram"
bin	-inf	0
bin	0	0
bin	1	0
scalar TestScenario.switchB.eth[0].queue.queues[2] queueLength:max 0
attr interpolationmode sample-hold
attr title "queue length, max"
scalar TestScenario.switchB.eth[0].queue.queues[2] queueLength:timeavg 0
attr interpolationmode sample-hold
attr title "queue length, timeavg"
scalar TestScenario.switchB.eth[0].queue.queues[3] dropPk:count 0
attr interpolationmode none
attr source dropPkByQueue
attr title "dropped packets, count"
scalar TestScenario.switchB.eth[0].queue.queues[3] rcvdPk:count 0
attr interpolationmode none
attr title "received packets, count"
statistic TestScenario.switchB.eth[0].queue.queues[3] queueingTime:histogram
field count 0
field mean -nan
field stddev -nan
field min -nan
field max -nan
field sum 0
field sqrsum 0
attr interpolationmode none
attr title "queueing time, histogram"
bin	-inf	0
bin	0	0
bin	1	0
scalar TestScenario.switchB.eth[0].queue.queues[3] queueLength:max 0
attr interpolationmode sample-hold
attr title "queue length, max"
scalar TestScenario.switchB.eth[0].queue.queues[3] queueLength:timeavg 0
attr interpolationmode sample-hold
attr title "queue length, timeavg"
scalar TestScenario.switchB.eth[0].queue.queues[4] dropPk:count 0
attr interpolationmode none
attr source dropPkByQueue
attr title "dropped packets, count"
scalar TestScenario.switchB.eth[0].queue.queues[4] rcvdPk:count 0
attr interpolationmode none
attr title "received packets, count"
statistic TestScenario.switchB.eth[0].queue.queues[4] queueingTime:histogram
field count 0
field mean -nan
field stddev -nan
field min -nan
field max -nan
field sum 0
field sqrsum 0
attr interpolationmode none
attr title "queueing time, histogram"
bin	-inf	0
bin	0	0
bin	1	0
scalar TestScenario.switchB.eth[0].queue.queues[4] queueLength:max 0
attr interpolationmode sample-hold
attr title "queue length, max"
scalar TestScenario.switchB.eth[0].queue.queues[4] queueLength:timeavg 0
attr interpolationmode sample-hold
attr title "queue length, timeavg"
scalar TestScenario.switchB.eth[0].queue.queues[5] dropPk:count 0
attr interpolationmode none
attr source dropPkByQueue
attr title "dropped packets, count"
scalar TestScenario.switchB.eth[0].queue.queues[5] rcvdPk:count 0
attr interpolationmode none
attr title "received packets, count"
statistic TestScenario.switchB.eth[0].queue.queues[5] queueingTime:histogram
field count 0
field mean -nan
field stddev -nan
field min -nan
field max -nan
field sum 0
field sqrsum 0
attr interpolationmode none
attr title "queueing time, histogram"
bin	-inf	0
bin	0	0
bin	1	0
scalar TestScenario.switchB.eth[0].queue.queues[5] queueLength:max 0
attr interpolationmode sample-hold
attr title "queue length, max"
scalar TestScenario.switchB.eth[0].queue.queues[5] queueLength:timeavg 0
attr interpolationmode sample-hold
attr title "queue length, timeavg"
scalar TestScenario.switchB.eth[0].queue.queues[6] dropPk:count 0
attr interpolationmode none
attr source dropPkByQueue
attr title "dropped packets, count"
scalar TestScenario.switchB.eth[0].queue.queues[6] rcvdPk:count 0
attr interpolationmode none
attr title "received packets, count"
statistic TestScenario.switchB.eth[0].queue.queues[6] queueingTime:histogram
field count 0
field mean -nan
field stddev -nan
field min -nan
field max -nan
field sum 0
field sqrsum 0
attr interpolationmode none
attr title "queueing time, histogram"
bin	-inf	0
bin	0	0
bin	1	0
scalar TestScenario.switchB.eth[0].queue.queues[6] queueLength:max 0
attr interpolationmode sample-hold
attr title "queue length, max"
scalar TestScenario.switchB.eth[0].queue.queues[6] queueLength:timeavg 0
attr interpolationmode sample-hold
attr title "queue length, timeavg"
scalar TestScenario.switchB.eth[0].queue.queues[7] dropPk:count 0
attr interpolationmode none
attr source dropPkByQueue
attr title "dropped packets, count"
scalar TestScenario.switchB.eth[0].queue.queues[7] rcvdPk:count 1
attr interpolationmode none
attr title "received packets, count"
statistic TestScenario.switchB.eth[0].queue.queues[7] queueingTime:histogram
field count 1
field mean 0
field stddev -nan
field min 0
field max 0
field sum 0
field sqrsum 0
attr interpolationmode none
attr title "queueing time, histogram"
bin	-inf	0
bin	-0.5	0
bin	-0.48	0
bin	-0.46	0
bin	-0.44	0
bin	-0.42	0
bin	-0.4	0
bin	-0.38	0
bin	-0.36	0
bin	-0.34	0
bin	-0.32	0
bin	-0.3	0
bin	-0.28	0
bin	-0.26	0
bin	-0.24	0
bin	-0.22	0
bin	-0.2	0
bin	-0.18	0
bin	-0.16	0
bin	-0.14	0
bin	-0.12	0
bin	-0.1	0
bin	-0.08	0
bin	-0.06	0
bin	-0.04	0
bin	-0.02	0
bin	0	1
bin	0.02	0
bin	0.04	0
bin	0.06	0
bin	0.08	0
bin	0.1	0
bin	0.12	0
bin	0.14	0
bin	0.16	0
bin	0.18	0
bin	0.2	0
bin	0.22	0
bin	0.24	0
bin	0.26	0
bin	0.28	0
bin	0.3	0
bin	0.32	0
bin	0.34	0
bin	0.36	0
bin	0.38	0
bin	0.4	0
bin	0.42	0
bin	0.44	0
bin	0.46	0
bin	0.48	0
bin	0.5	0
scalar TestScenario.switchB.eth[0].queue.queues[7] queueLength:max 1
attr interpolationmode sample-hold
attr title "queue length, max"
scalar TestScenario.switchB.eth[0].queue.queues[7] queueLength:timeavg 0
attr interpolationmode sample-hold
attr title "queue length, timeavg"
scalar TestScenario.switchB.eth[0].mac "simulated time" 0.000331971314
scalar TestScenario.switchB.eth[0].mac full-duplex 1
scalar TestScenario.switchB.eth[0].mac "frames/sec sent" 3012.3084671105
scalar TestScenario.switchB.eth[0].mac "frames/sec rcvd" 0
scalar TestScenario.switchB.eth[0].mac "bits/sec sent" 9061023.8690684
scalar TestScenario.switchB.eth[0].mac "bits/sec rcvd" 0
scalar TestScenario.switchB.eth[0].mac "rx channel idle (%)" 100
scalar TestScenario.switchB.eth[0].mac "rx channel utilization (%)" 0
statistic TestScenario.switchB.eth[0].mac pMacDelay:histogram
field count 0
field mean -nan
field stddev -nan
field min -nan
field max -nan
field sum 0
field sqrsum 0
attr interpolationmode none
attr title "pMacDelay, histogram"
bin	-inf	0
bin	0	0
bin	1	0
statistic TestScenario.switchB.eth[0].mac eMacDelay:histogram
field count 1
field mean 2.6344e-05
field stddev -nan
field min 2.6344e-05
field max 2.6344e-05
field sum 2.6344e-05
field sqrsum 6.94006336e-10
attr interpolationmode none
attr title "eMacDelay, histogram"
bin	-inf	0
bin	0	1
bin	0.01	0
bin	0.02	0
bin	0.03	0
bin	0.04	0
bin	0.05	0
bin	0.06	0
bin	0.07	0
bin	0.08	0
bin	0.09	0
bin	0.1	0
bin	0.11	0
bin	0.12	0
bin	0.13	0
bin	0.14	0
bin	0.15	0
bin	0.16	0
bin	0.17	0
bin	0.18	0
bin	0.19	0
bin	0.2	0
bin	0.21	0
bin	0.22	0
bin	0.23	0
bin	0.24	0
bin	0.25	0
bin	0.26	0
bin	0.27	0
bin	0.28	0
bin	0.29	0
bin	0.3	0
bin	0.31	0
bin	0.32	0
bin	0.33	0
bin	0.34	0
bin	0.35	0
bin	0.36	0
bin	0.37	0
bin	0.38	0
bin	0.39	0
bin	0.4	0
bin	0.41	0
bin	0.42	0
bin	0.43	0
bin	0.44	0
bin	0.45	0
bin	0.46	0
bin	0.47	0
bin	0.48	0
bin	0.49	0
bin	0.5	0
bin	0.51	0
scalar TestScenario.switchB.eth[0].mac expressFramesEnqueued:count 0
attr interpolationmode none
attr source expressFrameEnqueuedWhileSendingPreemptableSignal
attr title "express frames enqueued, count"
scalar TestScenario.switchB.eth[0].mac mPacketsFull:count 0
attr interpolationmode none
attr source transmittedPreemptableFullSignal
attr title "mpackets full, count"
scalar TestScenario.switchB.eth[0].mac mPacketsFinal:count 0
attr interpolationmode none
attr source transmittedPreemptableFinalSignal
attr title "mPackets final, count"
scalar TestScenario.switchB.eth[0].mac mPacketsNonFinal:count 0
attr interpolationmode none
attr source transmittedPreemptableNonFinalSignal
attr title "mPackets non-final, count"
scalar TestScenario.switchB.eth[0].mac mPackets:count 0
attr interpolationmode none
attr source transmittedPreemptableFramePartSignal
attr title "mPackets, count"
scalar TestScenario.switchB.eth[0].mac preemptableFrames:count 0
attr interpolationmode none
attr source transmittedPreemptableFrameSignal
attr title "preemptableFrames, count"
scalar TestScenario.switchB.eth[0].mac expressFrames:count 1
attr interpolationmode none
attr source transmittedExpressFrameSignal
attr title "expressFrames, count"
scalar TestScenario.switchB.eth[0].mac preemptions:count 0
attr interpolationmode none
attr source preemptCurrentFrameSignal
attr title "preemptions, count"
scalar TestScenario.switchB.eth[0].mac rxPausePkUnits:count 0
attr interpolationmode none
attr title "pause units received, count"
scalar TestScenario.switchB.eth[0].mac rxPausePkUnits:sum 0
attr interpolationmode none
attr title "pause units received, sum"
scalar TestScenario.switchB.eth[0].mac txPausePkUnits:count 0
attr interpolationmode none
attr title "pause units sent, count"
scalar TestScenario.switchB.eth[0].mac txPausePkUnits:sum 0
attr interpolationmode none
attr title "pause units sent, sum"
scalar TestScenario.switchB.eth[0].mac rxPkOk:count 0
attr interpolationmode none
attr source rxPkOk
attr title "packets received OK, count"
scalar TestScenario.switchB.eth[0].mac rxPkOk:sum(packetBytes) 0
attr interpolationmode none
attr source rxPkOk
attr title "packets received OK, sum(packetBytes)"
scalar TestScenario.switchB.eth[0].mac txPk:count 1
attr interpolationmode none
attr source packetSentToLower
attr title "packets transmitted, count"
scalar TestScenario.switchB.eth[0].mac txPk:sum(packetBytes) 376
attr interpolationmode none
attr source packetSentToLower
attr title "packets transmitted, sum(packetBytes)"
scalar TestScenario.switchB.eth[0].mac packetReceivedFromUpper:count 1
attr interpolationmode none
attr source packetReceivedFromUpper
attr title "packet bytes from higher layer, count"
scalar TestScenario.switchB.eth[0].mac packetReceivedFromUpper:sum(packetBytes) 376
attr interpolationmode none
attr source packetReceivedFromUpper
attr title "packet bytes from higher layer, sum(packetBytes)"
scalar TestScenario.switchB.eth[0].mac passedUpPk:count 0
attr interpolationmode none
attr source packetSentToUpper
attr title "packets passed to higher layer, count"
scalar TestScenario.switchB.eth[0].mac passedUpPk:sum(packetBytes) 0
attr interpolationmode none
attr source packetSentToUpper
attr title "packets passed to higher layer, sum(packetBytes)"
scalar TestScenario.switchB.eth[0].mac packetDropIncorrectlyReceived:count 0
attr interpolationmode none
attr source packetDropReasonIsIncorrectlyReceived(packetDropped)
attr title "packet drop: incorrectly received, count"
scalar TestScenario.switchB.eth[0].mac packetDropIncorrectlyReceived:sum(packetBytes) 0
attr interpolationmode none
attr source packetDropReasonIsIncorrectlyReceived(packetDropped)
attr title "packet drop: incorrectly received, sum(packetBytes)"
scalar TestScenario.switchB.eth[0].mac packetDropInterfaceDown:count 0
attr interpolationmode none
attr source packetDropReasonIsInterfaceDown(packetDropped)
attr title "packet drop: interface down, count"
scalar TestScenario.switchB.eth[0].mac packetDropInterfaceDown:sum(packetBytes) 0
attr interpolationmode none
attr source packetDropReasonIsInterfaceDown(packetDropped)
attr title "packet drop: interface down, sum(packetBytes)"
scalar TestScenario.switchB.eth[0].mac packetDropNotAddressedToUs:count 0
attr interpolationmode none
attr source packetDropReasonIsNotAddressedToUs(packetDropped)
attr title "packet drop: not addressed to us, count"
scalar TestScenario.switchB.eth[0].mac packetDropNotAddressedToUs:sum(packetBytes) 0
attr interpolationmode none
attr source packetDropReasonIsNotAddressedToUs(packetDropped)
attr title "packet drop: not addressed to us, sum(packetBytes)"
scalar TestScenario.switchB.eth[0].qEncap packetDropped:count 0
attr interpolationmode none
attr source packetDropped
attr title "packet dropped, count"
scalar TestScenario.switchB.eth[0].qEncap packetDropped:sum(packetBytes) 0
attr interpolationmode none
attr source packetDropped
attr title "packet dropped, sum(packetBytes)"
scalar TestScenario.switchB.eth[1].queue.queues[0] dropPk:count 0
attr interpolationmode none
attr source dropPkByQueue
attr title "dropped packets, count"
scalar TestScenario.switchB.eth[1].queue.queues[0] rcvdPk:count 0
attr interpolationmode none
attr title "received packets, count"
statistic TestScenario.switchB.eth[1].queue.queues[0] queueingTime:histogram
field count 0
field mean -nan
field stddev -nan
field min -nan
field max -nan
field sum 0
field sqrsum 0
attr interpolationmode none
attr title "queueing time, histogram"
bin	-inf	0
bin	0	0
bin	1	0
scalar TestScenario.switchB.eth[1].queue.queues[0] queueLength:max 0
attr interpolationmode sample-hold
attr title "queue length, max"
scalar TestScenario.switchB.eth[1].queue.queues[0] queueLength:timeavg 0
attr interpolationmode sample-hold
attr title "queue length, timeavg"
scalar TestScenario.switchB.eth[1].queue.queues[1] dropPk:count 0
attr interpolationmode none
attr source dropPkByQueue
attr title "dropped packets, count"
scalar TestScenario.switchB.eth[1].queue.queues[1] rcvdPk:count 0
attr interpolationmode none
attr title "received packets, count"
statistic TestScenario.switchB.eth[1].queue.queues[1] queueingTime:histogram
field count 0
field mean -nan
field stddev -nan
field min -nan
field max -nan
field sum 0
field sqrsum 0
attr interpolationmode none
attr title "queueing time, histogram"
bin	-inf	0
bin	0	0
bin	1	0
scalar TestScenario.switchB.eth[1].queue.queues[1] queueLength:max 0
attr interpolationmode sample-hold
attr title "queue length, max"
scalar TestScenario.switchB.eth[1].queue.queues[1] queueLength:timeavg 0
attr interpolationmode sample-hold
attr title "queue length, timeavg"
scalar TestScenario.switchB.eth[1].queue.queues[2] dropPk:count 0
attr interpolationmode none
attr source dropPkByQueue
attr title "dropped packets, count"
scalar TestScenario.switchB.eth[1].queue.queues[2] rcvdPk:count 0
attr interpolationmode none
attr title "received packets, count"
statistic TestScenario.switchB.eth[1].queue.queues[2] queueingTime:histogram
field count 0
field mean -nan
field stddev -nan
field min -nan
field max -nan
field sum 0
field sqrsum 0
attr interpolationmode none
attr title "queueing time, histogram"
bin	-inf	0
bin	0	0
bin	1	0
scalar TestScenario.switchB.eth[1].queue.queues[2] queueLength:max 0
attr interpolationmode sample-hold
attr title "queue length, max"
scalar TestScenario.switchB.eth[1].queue.queues[2] queueLength:timeavg 0
attr interpolationmode sample-hold
attr title "queue length, timeavg"
scalar TestScenario.switchB.eth[1].queue.queues[3] dropPk:count 0
attr interpolationmode none
attr source dropPkByQueue
attr title "dropped packets, count"
scalar TestScenario.switchB.eth[1].queue.queues[3] rcvdPk:count 0
attr interpolationmode none
attr title "received packets, count"
statistic TestScenario.switchB.eth[1].queue.queues[3] queueingTime:histogram
field count 0
field mean -nan
field stddev -nan
field min -nan
field max -nan
field sum 0
field sqrsum 0
attr interpolationmode none
attr title "queueing time, histogram"
bin	-inf	0
bin	0	0
bin	1	0
scalar TestScenario.switchB.eth[1].queue.queues[3] queueLength:max 0
attr interpolationmode sample-hold
attr title "queue length, max"
scalar TestScenario.switchB.eth[1].queue.queues[3] queueLength:timeavg 0
attr interpolationmode sample-hold
attr title "queue length, timeavg"
scalar TestScenario.switchB.eth[1].queue.queues[4] dropPk:count 0
attr interpolationmode none
attr source dropPkByQueue
attr title "dropped packets, count"
scalar TestScenario.switchB.eth[1].queue.queues[4] rcvdPk:count 0
attr interpolationmode none
attr title "received packets, count"
statistic TestScenario.switchB.eth[1].queue.queues[4] queueingTime:histogram
field count 0
field mean -nan
field stddev -nan
field min -nan
field max -nan
field sum 0
field sqrsum 0
attr interpolationmode none
attr title "queueing time, histogram"
bin	-inf	0
bin	0	0
bin	1	0
scalar TestScenario.switchB.eth[1].queue.queues[4] queueLength:max 0
attr interpolationmode sample-hold
attr title "queue length, max"
scalar TestScenario.switchB.eth[1].queue.queues[4] queueLength:timeavg 0
attr interpolationmode sample-hold
attr title "queue length, timeavg"
scalar TestScenario.switchB.eth[1].queue.queues[5] dropPk:count 0
attr interpolationmode none
attr source dropPkByQueue
attr title "dropped packets, count"
scalar TestScenario.switchB.eth[1].queue.queues[5] rcvdPk:count 1
attr interpolationmode none
attr title "received packets, count"
statistic TestScenario.switchB.eth[1].queue.queues[5] queueingTime:histogram
field count 1
field mean 0
field stddev -nan
field min 0
field max 0
field sum 0
field sqrsum 0
attr interpolationmode none
attr title "queueing time, histogram"
bin	-inf	0
bin	-0.5	0
bin	-0.48	0
bin	-0.46	0
bin	-0.44	0
bin	-0.42	0
bin	-0.4	0
bin	-0.38	0
bin	-0.36	0
bin	-0.34	0
bin	-0.32	0
bin	-0.3	0
bin	-0.28	0
bin	-0.26	0
bin	-0.24	0
bin	-0.22	0
bin	-0.2	0
bin	-0.18	0
bin	-0.16	0
bin	-0.14	0
bin	-0.12	0
bin	-0.1	0
bin	-0.08	0
bin	-0.06	0
bin	-0.04	0
bin	-0.02	0
bin	0	1
bin	0.02	0
bin	0.04	0
bin	0.06	0
bin	0.08	0
bin	0.1	0
bin	0.12	0
bin	0.14	0
bin	0.16	0
bin	0.18	0
bin	0.2	0
bin	0.22	0
bin	0.24	0
bin	0.26	0
bin	0.28	0
bin	0.3	0
bin	0.32	0
bin	0.34	0
bin	0.36	0
bin	0.38	0
bin	0.4	0
bin	0.42	0
bin	0.44	0
bin	0.46	0
bin	0.48	0
bin	0.5	0
scalar TestScenario.switchB.eth[1].queue.queues[5] queueLength:max 1
attr interpolationmode sample-hold
attr title "queue length, max"
scalar TestScenario.switchB.eth[1].queue.queues[5] queueLength:timeavg 0
attr interpolationmode sample-hold
attr title "queue length, timeavg"
scalar TestScenario.switchB.eth[1].queue.queues[6] dropPk:count 0
attr interpolationmode none
attr source dropPkByQueue
attr title "dropped packets, count"
scalar TestScenario.switchB.eth[1].queue.queues[6] rcvdPk:count 1
attr interpolationmode none
attr title "received packets, count"
statistic TestScenario.switchB.eth[1].queue.queues[6] queueingTime:histogram
field count 1
field mean 0
field stddev -nan
field min 0
field max 0
field sum 0
field sqrsum 0
attr interpolationmode none
attr title "queueing time, histogram"
bin	-inf	0
bin	-0.5	0
bin	-0.48	0
bin	-0.46	0
bin	-0.44	0
bin	-0.42	0
bin	-0.4	0
bin	-0.38	0
bin	-0.36	0
bin	-0.34	0
bin	-0.32	0
bin	-0.3	0
bin	-0.28	0
bin	-0.26	0
bin	-0.24	0
bin	-0.22	0
bin	-0.2	0
bin	-0.18	0
bin	-0.16	0
bin	-0.14	0
bin	-0.12	0
bin	-0.1	0
bin	-0.08	0
bin	-0.06	0
bin	-0.04	0
bin	-0.02	0
bin	0	1
bin	0.02	0
bin	0.04	0
bin	0.06	0
bin	0.08	0
bin	0.1	0
bin	0.12	0
bin	0.14	0
bin	0.16	0
bin	0.18	0
bin	0.2	0
bin	0.22	0
bin	0.24	0
bin	0.26	0
bin	0.28	0
bin	0.3	0
bin	0.32	0
bin	0.34	0
bin	0.36	0
bin	0.38	0
bin	0.4	0
bin	0.42	0
bin	0.44	0
bin	0.46	0
bin	0.48	0
bin	0.5	0
scalar TestScenario.switchB.eth[1].queue.queues[6] queueLength:max 1
attr interpolationmode sample-hold
attr title "queue length, max"
scalar TestScenario.switchB.eth[1].queue.queues[6] queueLength:timeavg 0
attr interpolationmode sample-hold
attr title "queue length, timeavg"
scalar TestScenario.switchB.eth[1].queue.queues[7] dropPk:count 0
attr interpolationmode none
attr source dropPkByQueue
attr title "dropped packets, count"
scalar TestScenario.switchB.eth[1].queue.queues[7] rcvdPk:count 0
attr interpolationmode none
attr title "received packets, count"
statistic TestScenario.switchB.eth[1].queue.queues[7] queueingTime:histogram
field count 0
field mean -nan
field stddev -nan
field min -nan
field max -nan
field sum 0
field sqrsum 0
attr interpolationmode none
attr title "queueing time, histogram"
bin	-inf	0
bin	0	0
bin	1	0
[...]
scalar TestScenario.backupServer.trafGenApp packetReceived:count 2
attr interpolationmode none
attr source packetReceived
attr title "packets received, count"
scalar TestScenario.backupServer.trafGenApp packetReceived:sum(packetBytes) 2992
attr interpolationmode none
attr source packetReceived
attr title "packets received, sum(packetBytes)"
statistic TestScenario.backupServer.trafGenApp endToEndDelay:histogram
field count 2
field mean 0.000223768
field stddev 8.7002418357193e-06
field min 0.000217616
field max 0.00022992
field sum 0.000447536
field sqrsum 1.00219929856e-07
attr interpolationmode none
attr source dataAge(packetReceived)
attr title "end-to-end delay, histogram"
attr unit s
bin	-inf	0
bin	0.0002144	0
bin	0.0002146	0
bin	0.0002148	0
bin	0.000215	0
bin	0.0002152	0
bin	0.0002154	0
bin	0.0002156	0
bin	0.0002158	0
bin	0.000216	0
bin	0.0002162	0
bin	0.0002164	0
bin	0.0002166	0
bin	0.0002168	0
bin	0.000217	0
bin	0.0002172	0
bin	0.0002174	0
bin	0.0002176	1
bin	0.0002178	0
bin	0.000218	0
bin	0.0002182	0
bin	0.0002184	0
bin	0.0002186	0
bin	0.0002188	0
bin	0.000219	0
bin	0.0002192	0
bin	0.0002194	0
bin	0.0002196	0
bin	0.0002198	0
bin	0.00022	0
bin	0.0002202	0
bin	0.0002204	0
bin	0.0002206	0
bin	0.0002208	0
bin	0.000221	0
bin	0.0002212	0
bin	0.0002214	0
bin	0.0002216	0
bin	0.0002218	0
bin	0.000222	0
bin	0.0002222	0
bin	0.0002224	0
bin	0.0002226	0
bin	0.0002228	0
bin	0.000223	0
bin	0.0002232	0
bin	0.0002234	0
bin	0.0002236	0
bin	0.0002238	0
bin	0.000224	0
bin	0.0002242	0
bin	0.0002244	0
bin	0.0002246	0
bin	0.0002248	0
bin	0.000225	0
bin	0.0002252	0
bin	0.0002254	0
bin	0.0002256	0
bin	0.0002258	0
bin	0.000226	0
bin	0.0002262	0
bin	0.0002264	0
bin	0.0002266	0
bin	0.0002268	0
bin	0.000227	0
bin	0.0002272	0
bin	0.0002274	0
bin	0.0002276	0
bin	0.0002278	0
bin	0.000228	0
bin	0.0002282	0
bin	0.0002284	0
bin	0.0002286	0
bin	0.0002288	0
bin	0.000229	0
bin	0.0002292	0
bin	0.0002294	0
bin	0.0002296	0
bin	0.0002298	1
bin	0.00023	0
bin	0.0002302	0
bin	0.0002304	0
bin	0.0002306	0
bin	0.0002308	0
bin	0.000231	0
bin	0.0002312	0
bin	0.0002314	0
bin	0.0002316	0
bin	0.0002318	0
bin	0.000232	0
bin	0.0002322	0
bin	0.0002324	0
bin	0.0002326	0
bin	0.0002328	0
bin	0.000233	0
scalar TestScenario.backupServer.trafGenApp packetSent:count 0
attr interpolationmode none
attr source packetSent
attr title "packets sent, count"
scalar TestScenario.backupServer.trafGenApp packetSent:sum(packetBytes) 0
attr interpolationmode none
attr source packetSent
attr title "packets sent, sum(packetBytes)"
scalar TestScenario.backupServer.eth.mac "simulated time" 0.000331971314
scalar TestScenario.backupServer.eth.mac full-duplex 1
scalar TestScenario.backupServer.eth.mac "frames/sec sent" 0
scalar TestScenario.backupServer.eth.mac "frames/sec rcvd" 6024.616934221
scalar TestScenario.backupServer.eth.mac "bits/sec sent" 0
scalar TestScenario.backupServer.eth.mac "bits/sec rcvd" 73162948.04918
scalar TestScenario.backupServer.eth.mac "rx channel idle (%)" 100
scalar TestScenario.backupServer.eth.mac "rx channel utilization (%)" 0
scalar TestScenario.backupServer.eth.mac rxPausePkUnits:count 0
attr interpolationmode none
attr title "pause units received, count"
scalar TestScenario.backupServer.eth.mac rxPausePkUnits:sum 0
attr interpolationmode none
attr title "pause units received, sum"
scalar TestScenario.backupServer.eth.mac txPausePkUnits:count 0
attr interpolationmode none
attr title "pause units sent, count"
scalar TestScenario.backupServer.eth.mac txPausePkUnits:sum 0
attr interpolationmode none
attr title "pause units sent, sum"
scalar TestScenario.backupServer.eth.mac rxPkOk:count 2
attr interpolationmode none
attr source rxPkOk
attr title "packets received OK, count"
scalar TestScenario.backupServer.eth.mac rxPkOk:sum(packetBytes) 3036
attr interpolationmode none
attr source rxPkOk
attr title "packets received OK, sum(packetBytes)"
scalar TestScenario.backupServer.eth.mac txPk:count 0
attr interpolationmode none
attr source packetSentToLower
attr title "packets transmitted, count"
scalar TestScenario.backupServer.eth.mac txPk:sum(packetBytes) 0
attr interpolationmode none
attr source packetSentToLower
attr title "packets transmitted, sum(packetBytes)"
scalar TestScenario.backupServer.eth.mac packetReceivedFromUpper:count 0
attr interpolationmode none
attr source packetReceivedFromUpper
attr title "packet bytes from higher layer, count"
scalar TestScenario.backupServer.eth.mac packetReceivedFromUpper:sum(packetBytes) 0
attr interpolationmode none
attr source packetReceivedFromUpper
attr title "packet bytes from higher layer, sum(packetBytes)"
scalar TestScenario.backupServer.eth.mac passedUpPk:count 2
attr interpolationmode none
attr source packetSentToUpper
attr title "packets passed to higher layer, count"
scalar TestScenario.backupServer.eth.mac passedUpPk:sum(packetBytes) 3036
attr interpolationmode none
attr source packetSentToUpper
attr title "packets passed to higher layer, sum(packetBytes)"
scalar TestScenario.backupServer.eth.mac packetDropIncorrectlyReceived:count 0
attr interpolationmode none
attr source packetDropReasonIsIncorrectlyReceived(packetDropped)
attr title "packet drop: incorrectly received, count"
scalar TestScenario.backupServer.eth.mac packetDropIncorrectlyReceived:sum(packetBytes) 0
attr interpolationmode none
attr source packetDropReasonIsIncorrectlyReceived(packetDropped)
attr title "packet drop: incorrectly received, sum(packetBytes)"
scalar TestScenario.backupServer.eth.mac packetDropInterfaceDown:count 0
attr interpolationmode none
attr source packetDropReasonIsInterfaceDown(packetDropped)
attr title "packet drop: interface down, count"
scalar TestScenario.backupServer.eth.mac packetDropInterfaceDown:sum(packetBytes) 0
attr interpolationmode none
attr source packetDropReasonIsInterfaceDown(packetDropped)
attr title "packet drop: interface down, sum(packetBytes)"
scalar TestScenario.backupServer.eth.mac packetDropNotAddressedToUs:count 0
attr interpolationmode none
attr source packetDropReasonIsNotAddressedToUs(packetDropped)
attr title "packet drop: not addressed to us, count"
scalar TestScenario.backupServer.eth.mac packetDropNotAddressedToUs:sum(packetBytes) 0
attr interpolationmode none
attr source packetDropReasonIsNotAddressedToUs(packetDropped)
attr title "packet drop: not addressed to us, sum(packetBytes)"
scalar TestScenario.backupServer.eth.encap pauseSent:count 0
attr title "pause sent, count"
scalar TestScenario.backupServer.eth.encap pauseSent:sum 0
attr title "pause sent, sum"
scalar TestScenario.backupServer.eth.encap decapPk:count 2
attr interpolationmode none
attr source decapPk
attr title "packets decapsulated, count"
scalar TestScenario.backupServer.eth.encap decapPk:sum(packetBytes) 2992
attr interpolationmode none
attr source decapPk
attr title "packets decapsulated, sum(packetBytes)"
scalar TestScenario.backupServer.eth.encap encapPk:count 0
attr interpolationmode none
attr source encapPk
attr title "packets encapsulated, count"
scalar TestScenario.backupServer.eth.encap encapPk:sum(packetBytes) 0
attr interpolationmode none
attr source encapPk
attr title "packets encapsulated, sum(packetBytes)"
scalar TestScenario.backupServer.eth.qEncap packetDropped:count 0
attr interpolationmode none
attr source packetDropped
attr title "packet dropped, count"
scalar TestScenario.backupServer.eth.qEncap packetDropped:sum(packetBytes) 0
attr interpolationmode none
attr source packetDropped
attr title "packet dropped, sum(packetBytes)"
scalar TestScenario.robotController.trafGenSchedApp pktSent:count 1
attr interpolationmode none
attr source sentPk
attr title "num packets sent, count"
scalar TestScenario.robotController.trafGenSchedApp pktRcvd:count 0
attr interpolationmode none
attr source rcvdPk
attr title "num packets received, count"
statistic TestScenario.robotController.trafGenSchedApp pktRcvdDelay:histogram
field count 0
field mean -nan
field stddev -nan
field min -nan
field max -nan
field sum 0
field sqrsum 0
attr interpolationmode none
attr source dataAge(rcvdPk)
attr title "end to end delay, histogram"
attr unit s
bin	-inf	0
bin	0	0
bin	1	0
scalar TestScenario.robotController.trafGenSchedApp pktRcvdDelay:min -nan
attr interpolationmode none
attr source dataAge(rcvdPk)
attr title "end to end delay, min"
attr unit s
scalar TestScenario.robotController.trafGenSchedApp pktRcvdDelay:max -nan
attr interpolationmode none
attr source dataAge(rcvdPk)
attr title "end to end delay, max"
attr unit s
scalar TestScenario.robotController.eth.mac "simulated time" 0.000331971314
scalar TestScenario.robotController.eth.mac full-duplex 1
scalar TestScenario.robotController.eth.mac "frames/sec sent" 3012.3084671105
scalar TestScenario.robotController.eth.mac "frames/sec rcvd" 0
scalar TestScenario.robotController.eth.mac "bits/sec sent" 9061023.8690684
scalar TestScenario.robotController.eth.mac "bits/sec rcvd" 0
scalar TestScenario.robotController.eth.mac "rx channel idle (%)" 100
scalar TestScenario.robotController.eth.mac "rx channel utilization (%)" 0
scalar TestScenario.robotController.eth.mac rxPausePkUnits:count 0
attr interpolationmode none
attr title "pause units received, count"
scalar TestScenario.robotController.eth.mac rxPausePkUnits:sum 0
attr interpolationmode none
attr title "pause units received, sum"
scalar TestScenario.robotController.eth.mac txPausePkUnits:count 0
attr interpolationmode none
attr title "pause units sent, count"
scalar TestScenario.robotController.eth.mac txPausePkUnits:sum 0
attr interpolationmode none
attr title "pause units sent, sum"
scalar TestScenario.robotController.eth.mac rxPkOk:count 0
attr interpolationmode none
attr source rxPkOk
attr title "packets received OK, count"
scalar TestScenario.robotController.eth.mac rxPkOk:sum(packetBytes) 0
attr interpolationmode none
attr source rxPkOk
attr title "packets received OK, sum(packetBytes)"
scalar TestScenario.robotController.eth.mac txPk:count 1
attr interpolationmode none
attr source packetSentToLower
attr title "packets transmitted, count"
scalar TestScenario.robotController.eth.mac txPk:sum(packetBytes) 376
attr interpolationmode none
attr source packetSentToLower
attr title "packets transmitted, sum(packetBytes)"
scalar TestScenario.robotController.eth.mac packetReceivedFromUpper:count 1
attr interpolationmode none
attr source packetReceivedFromUpper
attr title "packet bytes from higher layer, count"
scalar TestScenario.robotController.eth.mac packetReceivedFromUpper:sum(packetBytes) 376
attr interpolationmode none
attr source packetReceivedFromUpper
attr title "packet bytes from higher layer, sum(packetBytes)"
scalar TestScenario.robotController.eth.mac passedUpPk:count 0
attr interpolationmode none
attr source packetSentToUpper
attr title "packets passed to higher layer, count"
scalar TestScenario.robotController.eth.mac passedUpPk:sum(packetBytes) 0
attr interpolationmode none
attr source packetSentToUpper
attr title "packets passed to higher layer, sum(packetBytes)"
scalar TestScenario.robotController.eth.mac packetDropIncorrectlyReceived:count 0
attr interpolationmode none
attr source packetDropReasonIsIncorrectlyReceived(packetDropped)
attr title "packet drop: incorrectly received, count"
scalar TestScenario.robotController.eth.mac packetDropIncorrectlyReceived:sum(packetBytes) 0
attr interpolationmode none
attr source packetDropReasonIsIncorrectlyReceived(packetDropped)
attr title "packet drop: incorrectly received, sum(packetBytes)"
scalar TestScenario.robotController.eth.mac packetDropInterfaceDown:count 0
attr interpolationmode none
attr source packetDropReasonIsInterfaceDown(packetDropped)
attr title "packet drop: interface down, count"
scalar TestScenario.robotController.eth.mac packetDropInterfaceDown:sum(packetBytes) 0
attr interpolationmode none
attr source packetDropReasonIsInterfaceDown(packetDropped)
attr title "packet drop: interface down, sum(packetBytes)"
scalar TestScenario.robotController.eth.mac packetDropNotAddressedToUs:count 0
attr interpolationmode none
attr source packetDropReasonIsNotAddressedToUs(packetDropped)
attr title "packet drop: not addressed to us, count"
scalar TestScenario.robotController.eth.mac packetDropNotAddressedToUs:sum(packetBytes) 0
attr interpolationmode none
attr source packetDropReasonIsNotAddressedToUs(packetDropped)
attr title "packet drop: not addressed to us, sum(packetBytes)"
scalar TestScenario.robotController.eth.encap pauseSent:count 0
attr title "pause sent, count"
scalar TestScenario.robotController.eth.encap pauseSent:sum 0
attr title "pause sent, sum"
scalar TestScenario.robotController.eth.encap decapPk:count 0
attr interpolationmode none
attr source decapPk
attr title "packets decapsulated, count"
scalar TestScenario.robotController.eth.encap decapPk:sum(packetBytes) 0
attr interpolationmode none
attr source decapPk
attr title "packets decapsulated, sum(packetBytes)"
scalar TestScenario.robotController.eth.encap encapPk:count 1
attr interpolationmode none
attr source encapPk
attr title "packets encapsulated, count"
scalar TestScenario.robotController.eth.encap encapPk:sum(packetBytes) 354
attr interpolationmode none
attr source encapPk
attr title "packets encapsulated, sum(packetBytes)"
scalar TestScenario.robotController.eth.qEncap packetDropped:count 0
attr interpolationmode none
attr source packetDropped
attr title "packet dropped, count"
scalar TestScenario.robotController.eth.qEncap packetDropped:sum(packetBytes) 0
attr interpolationmode none
attr source packetDropped
attr title "packet dropped, sum(packetBytes)"
scalar TestScenario.roboticArm.trafGenApp packetReceived:count 1
attr interpolationmode none
attr source packetReceived
attr title "packets received, count"
scalar TestScenario.roboticArm.trafGenApp packetReceived:sum(packetBytes) 354
attr interpolationmode none
attr source packetReceived
attr title "packets received, sum(packetBytes)"
statistic TestScenario.roboticArm.trafGenApp endToEndDelay:histogram
field count 1
field mean 1.9516e-05
field stddev -nan
field min 1.9516e-05
field max 1.9516e-05
field sum 1.9516e-05
field sqrsum 3.80874256e-10
attr interpolationmode none
attr source dataAge(packetReceived)
attr title "end-to-end delay, histogram"
attr unit s
bin	-inf	0
bin	0	1
bin	0.01	0
bin	0.02	0
bin	0.03	0
bin	0.04	0
bin	0.05	0
bin	0.06	0
bin	0.07	0
bin	0.08	0
bin	0.09	0
bin	0.1	0
bin	0.11	0
bin	0.12	0
bin	0.13	0
bin	0.14	0
bin	0.15	0
bin	0.16	0
bin	0.17	0
bin	0.18	0
bin	0.19	0
bin	0.2	0
bin	0.21	0
bin	0.22	0
bin	0.23	0
bin	0.24	0
bin	0.25	0
bin	0.26	0
bin	0.27	0
bin	0.28	0
bin	0.29	0
bin	0.3	0
bin	0.31	0
bin	0.32	0
bin	0.33	0
bin	0.34	0
bin	0.35	0
bin	0.36	0
bin	0.37	0
bin	0.38	0
bin	0.39	0
bin	0.4	0
bin	0.41	0
bin	0.42	0
bin	0.43	0
bin	0.44	0
bin	0.45	0
bin	0.46	0
bin	0.47	0
bin	0.48	0
bin	0.49	0
bin	0.5	0
bin	0.51	0
scalar TestScenario.roboticArm.trafGenApp packetSent:count 0
attr interpolationmode none
attr source packetSent
attr title "packets sent, count"
scalar TestScenario.roboticArm.trafGenApp packetSent:sum(packetBytes) 0
attr interpolationmode none
attr source packetSent
attr title "packets sent, sum(packetBytes)"
scalar TestScenario.roboticArm.eth.mac "simulated time" 0.000331971314
scalar TestScenario.roboticArm.eth.mac full-duplex 1
scalar TestScenario.roboticArm.eth.mac "frames/sec sent" 0
scalar TestScenario.roboticArm.eth.mac "frames/sec rcvd" 3012.3084671105
scalar TestScenario.roboticArm.eth.mac "bits/sec sent" 0
scalar TestScenario.roboticArm.eth.mac "bits/sec rcvd" 9061023.8690684
scalar TestScenario.roboticArm.eth.mac "rx channel idle (%)" 100
scalar TestScenario.roboticArm.eth.mac "rx channel utilization (%)" 0
scalar TestScenario.roboticArm.eth.mac rxPausePkUnits:count 0
attr interpolationmode none
attr title "pause units received, count"
scalar TestScenario.roboticArm.eth.mac rxPausePkUnits:sum 0
attr interpolationmode none
attr title "pause units received, sum"
scalar TestScenario.roboticArm.eth.mac txPausePkUnits:count 0
attr interpolationmode none
attr title "pause units sent, count"
scalar TestScenario.roboticArm.eth.mac txPausePkUnits:sum 0
attr interpolationmode none
attr title "pause units sent, sum"
scalar TestScenario.roboticArm.eth.mac rxPkOk:count 1
attr interpolationmode none
attr source rxPkOk
attr title "packets received OK, count"
scalar TestScenario.roboticArm.eth.mac rxPkOk:sum(packetBytes) 376
attr interpolationmode none
attr source rxPkOk
attr title "packets received OK, sum(packetBytes)"
scalar TestScenario.roboticArm.eth.mac txPk:count 0
attr interpolationmode none
attr source packetSentToLower
attr title "packets transmitted, count"
scalar TestScenario.roboticArm.eth.mac txPk:sum(packetBytes) 0
attr interpolationmode none
attr source packetSentToLower
attr title "packets transmitted, sum(packetBytes)"
scalar TestScenario.roboticArm.eth.mac packetReceivedFromUpper:count 0
attr interpolationmode none
attr source packetReceivedFromUpper
attr title "packet bytes from higher layer, count"
scalar TestScenario.roboticArm.eth.mac packetReceivedFromUpper:sum(packetBytes) 0
attr interpolationmode none
attr source packetReceivedFromUpper
attr title "packet bytes from higher layer, sum(packetBytes)"
scalar TestScenario.roboticArm.eth.mac passedUpPk:count 1
attr interpolationmode none
attr source packetSentToUpper
attr title "packets passed to higher layer, count"
scalar TestScenario.roboticArm.eth.mac passedUpPk:sum(packetBytes) 376
attr interpolationmode none
attr source packetSentToUpper
attr title "packets passed to higher layer, sum(packetBytes)"
scalar TestScenario.roboticArm.eth.mac packetDropIncorrectlyReceived:count 0
attr interpolationmode none
attr source packetDropReasonIsIncorrectlyReceived(packetDropped)
attr title "packet drop: incorrectly received, count"
scalar TestScenario.roboticArm.eth.mac packetDropIncorrectlyReceived:sum(packetBytes) 0
attr interpolationmode none
attr source packetDropReasonIsIncorrectlyReceived(packetDropped)
attr title "packet drop: incorrectly received, sum(packetBytes)"
scalar TestScenario.roboticArm.eth.mac packetDropInterfaceDown:count 0
attr interpolationmode none
attr source packetDropReasonIsInterfaceDown(packetDropped)
attr title "packet drop: interface down, count"
scalar TestScenario.roboticArm.eth.mac packetDropInterfaceDown:sum(packetBytes) 0
attr interpolationmode none
attr source packetDropReasonIsInterfaceDown(packetDropped)
attr title "packet drop: interface down, sum(packetBytes)"
scalar TestScenario.roboticArm.eth.mac packetDropNotAddressedToUs:count 0
attr interpolationmode none
attr source packetDropReasonIsNotAddressedToUs(packetDropped)
attr title "packet drop: not addressed to us, count"
scalar TestScenario.roboticArm.eth.mac packetDropNotAddressedToUs:sum(packetBytes) 0
attr interpolationmode none
attr source packetDropReasonIsNotAddressedToUs(packetDropped)
attr title "packet drop: not addressed to us, sum(packetBytes)"
scalar TestScenario.roboticArm.eth.encap pauseSent:count 0
attr title "pause sent, count"
scalar TestScenario.roboticArm.eth.encap pauseSent:sum 0
attr title "pause sent, sum"
scalar TestScenario.roboticArm.eth.encap decapPk:count 1
attr interpolationmode none
attr source decapPk
attr title "packets decapsulated, count"
scalar TestScenario.roboticArm.eth.encap decapPk:sum(packetBytes) 354
attr interpolationmode none
attr source decapPk
attr title "packets decapsulated, sum(packetBytes)"
scalar TestScenario.roboticArm.eth.encap encapPk:count 0
attr interpolationmode none
attr source encapPk
attr title "packets encapsulated, count"
scalar TestScenario.roboticArm.eth.encap encapPk:sum(packetBytes) 0
attr interpolationmode none
attr source encapPk
attr title "packets encapsulated, sum(packetBytes)"
scalar TestScenario.roboticArm.eth.qEncap packetDropped:count 0
attr interpolationmode none
attr source packetDropped
attr title "packet dropped, count"
scalar TestScenario.roboticArm.eth.qEncap packetDropped:sum(packetBytes) 0
attr interpolationmode none
attr source packetDropped
attr title "packet dropped, sum(packetBytes)"

